Program Version,EnergyPlus, Version 9.4.0-998c4b761e, YMD=2021.06.25 08:51
! <Version>, Version ID
 Version, 9.4
! <Timesteps per Hour>, #TimeSteps, Minutes per TimeStep {minutes}
 Timesteps per Hour,  6, 10
! <System Convergence Limits>, Minimum System TimeStep {minutes}, Max HVAC Iterations, Minimum Plant Iterations, Maximum Plant Iterations
 System Convergence Limits, 1, 20, 2, 8
! <Simulation Control>, Do Zone Sizing, Do System Sizing, Do Plant Sizing, Do Design Days, Do Weather Simulation, Do HVAC Sizing Simulation
 Simulation Control, Yes, Yes, Yes, Yes, No, Yes
! <Performance Precision Tradeoffs>, Use Coil Direct Simulation, Zone Radiant Exchange Algorithm, Override Mode, Number of Timestep In Hour, Force Euler Method, Minimum Number of Warmup Days, Force Suppress All Begin Environment Resets, Minimum System Timestep, MaxZoneTempDiff, MaxAllowedDelTemp
 Performance Precision Tradeoffs, No, ScriptF, Normal, 6, No, 1, No, 1.0, 0.300, 2.0000E-003
! <Output Reporting Tolerances>, Tolerance for Time Heating Setpoint Not Met, Tolerance for Zone Cooling Setpoint Not Met Time
 Output Reporting Tolerances, 0.200, 0.200, 
! <Site:GroundTemperature:BuildingSurface>,Jan{C},Feb{C},Mar{C},Apr{C},May{C},Jun{C},Jul{C},Aug{C},Sep{C},Oct{C},Nov{C},Dec{C}
 Site:GroundTemperature:BuildingSurface,  18.00,  18.00,  18.00,  18.00,  18.00,  18.00,  18.00,  18.00,  18.00,  18.00,  18.00,  18.00
! <Site:GroundTemperature:FCfactorMethod>,Jan{C},Feb{C},Mar{C},Apr{C},May{C},Jun{C},Jul{C},Aug{C},Sep{C},Oct{C},Nov{C},Dec{C}
 Site:GroundTemperature:FCfactorMethod,  18.80,  14.30,  13.60,  13.20,  13.30,  12.60,  15.30,  15.60,  17.70,  19.40,  19.70,  18.50
! <Site:GroundTemperature:Shallow>,Jan{C},Feb{C},Mar{C},Apr{C},May{C},Jun{C},Jul{C},Aug{C},Sep{C},Oct{C},Nov{C},Dec{C}
 Site:GroundTemperature:Shallow,  13.00,  13.00,  13.00,  13.00,  13.00,  13.00,  13.00,  13.00,  13.00,  13.00,  13.00,  13.00
! <Site:GroundTemperature:Deep>,Jan{C},Feb{C},Mar{C},Apr{C},May{C},Jun{C},Jul{C},Aug{C},Sep{C},Oct{C},Nov{C},Dec{C}
 Site:GroundTemperature:Deep,  16.00,  16.00,  16.00,  16.00,  16.00,  16.00,  16.00,  16.00,  16.00,  16.00,  16.00,  16.00
! <Site:GroundReflectance>,Jan{dimensionless},Feb{dimensionless},Mar{dimensionless},Apr{dimensionless},May{dimensionless},Jun{dimensionless},Jul{dimensionless},Aug{dimensionless},Sep{dimensionless},Oct{dimensionless},Nov{dimensionless},Dec{dimensionless}
 Site:GroundReflectance,  0.20,  0.20,  0.20,  0.20,  0.20,  0.20,  0.20,  0.20,  0.20,  0.20,  0.20,  0.20
! <Site:GroundReflectance:SnowModifier>, Normal, Daylighting {dimensionless}
 Site:GroundReflectance:SnowModifier,   1.000,   1.000
! <Site:GroundReflectance:Snow>,Jan{dimensionless},Feb{dimensionless},Mar{dimensionless},Apr{dimensionless},May{dimensionless},Jun{dimensionless},Jul{dimensionless},Aug{dimensionless},Sep{dimensionless},Oct{dimensionless},Nov{dimensionless},Dec{dimensionless}
 Site:GroundReflectance:Snow,  0.20,  0.20,  0.20,  0.20,  0.20,  0.20,  0.20,  0.20,  0.20,  0.20,  0.20,  0.20
! <Site:GroundReflectance:Snow:Daylighting>,Jan{dimensionless},Feb{dimensionless},Mar{dimensionless},Apr{dimensionless},May{dimensionless},Jun{dimensionless},Jul{dimensionless},Aug{dimensionless},Sep{dimensionless},Oct{dimensionless},Nov{dimensionless},Dec{dimensionless}
 Site:GroundReflectance:Snow:Daylighting,  0.20,  0.20,  0.20,  0.20,  0.20,  0.20,  0.20,  0.20,  0.20,  0.20,  0.20,  0.20
! <Environment:Weather Station>,Wind Sensor Height Above Ground {m},Wind Speed Profile Exponent {},Wind Speed Profile Boundary Layer Thickness {m},Air Temperature Sensor Height Above Ground {m},Wind Speed Modifier Coefficient-Internal,Temperature Modifier Coefficient-Internal
Environment:Weather Station,10.000,0.140,270.000,1.500,1.586,9.750E-003
! <Site:Location>, Location Name, Latitude {N+/S- Deg}, Longitude {E+/W- Deg},  Time Zone Number {GMT+/-}, Elevation {m},  Standard Pressure at Elevation {Pa}, Standard RhoAir at Elevation
Site:Location,Climate Zone 3 CA USA CTZRV2 WMO#=724930,37.70,-122.20,-8.00,2.00,101301,1.2040
! <Site Water Mains Temperature Information>,Calculation Method{},Water Mains Temperature Schedule Name{},Annual Average Outdoor Air Temperature{C},Maximum Difference In Monthly Average Outdoor Air Temperatures{deltaC},Fixed Default Water Mains Temperature{C}
Site Water Mains Temperature Information,Correlation,NA,14.14,7.80,NA
! <Building Information>, Building Name,North Axis {deg},Terrain,  Loads Convergence Tolerance Value,Temperature Convergence Tolerance Value,  Solar Distribution,Maximum Number of Warmup Days,Minimum Number of Warmup Days
 Building Information,90.1-2007|SmallOffice|SmallOffice,0.000,City,4.00000E-002,0.40000,FullExterior,25,1
! <Inside Convection Algorithm>, Algorithm {Simple | TARP | CeilingDiffuser | AdaptiveConvectionAlgorithm}
Inside Convection Algorithm,TARP
! <Outside Convection Algorithm>, Algorithm {SimpleCombined | TARP | MoWitt | DOE-2 | AdaptiveConvectionAlgorithm}
Outside Convection Algorithm,DOE-2
! <Sky Radiance Distribution>, Value {Anisotropic}
Sky Radiance Distribution,Anisotropic
! <Zone Air Solution Algorithm>, Value {ThirdOrderBackwardDifference | AnalyticalSolution | EulerMethod}
 Zone Air Solution Algorithm, ThirdOrderBackwardDifference
! <Zone Air Carbon Dioxide Balance Simulation>, Simulation {Yes/No}, Carbon Dioxide Concentration
 Zone Air Carbon Dioxide Balance Simulation, No,N/A
! <Zone Air Generic Contaminant Balance Simulation>, Simulation {Yes/No}, Generic Contaminant Concentration
 Zone Air Generic Contaminant Balance Simulation, No,N/A
! <Zone Air Mass Flow Balance Simulation>, Enforce Mass Balance, Adjust Zone Mixing, Adjust Zone Infiltration {AddInfiltration | AdjustInfiltration | None}, Infiltration Zones {MixingSourceZonesOnly | AllZones}
 Zone Air Mass Flow Balance Simulation, No,N/A,N/A,N/A
! <HVACSystemRootFindingAlgorithm>, Value {RegulaFalsi | Bisection | BisectionThenRegulaFalsi | RegulaFalsiThenBisection}
 HVACSystemRootFindingAlgorithm, RegulaFalsi
! <Environment:Site Atmospheric Variation>,Wind Speed Profile Exponent {},Wind Speed Profile Boundary Layer Thickness {m},Air Temperature Gradient Coefficient {K/m}
Environment:Site Atmospheric Variation,0.330,460.000,6.500000E-003
! <Surface Geometry>,Starting Corner,Vertex Input Direction,Coordinate System,Daylight Reference Point Coordinate System,Rectangular (Simple) Surface Coordinate System
 Surface Geometry,UpperLeftCorner,Counterclockwise,RelativeCoordinateSystem,RelativeCoordinateSystem,RelativeToZoneOrigin
! <Surface Heat Transfer Algorithm>, Value {CTF - ConductionTransferFunction | EMPD - MoisturePenetrationDepthConductionTransferFunction | CondFD - ConductionFiniteDifference | HAMT - CombinedHeatAndMoistureFiniteElement} - Description,Inside Surface Max Temperature Limit{C}, Surface Convection Coefficient Lower Limit {W/m2-K}, Surface Convection Coefficient Upper Limit {W/m2-K}
Surface Heat Transfer Algorithm, CTF - ConductionTransferFunction,200,0.10,1000.0
! <Shading Summary>, Number of Fixed Detached Shades, Number of Building Detached Shades, Number of Attached Shades
 Shading Summary,0,0,0
! <Zone Summary>, Number of Zones, Number of Zone Surfaces, Number of SubSurfaces
 Zone Summary,9,66,12
! <Zone Information>,Zone Name,North Axis {deg},Origin X-Coordinate {m},Origin Y-Coordinate {m},Origin Z-Coordinate {m},Centroid X-Coordinate {m},Centroid Y-Coordinate {m},Centroid Z-Coordinate {m},Type,Zone Multiplier,Zone List Multiplier,Minimum X {m},Maximum X {m},Minimum Y {m},Maximum Y {m},Minimum Z {m},Maximum Z {m},Ceiling Height {m},Volume {m3},Zone Inside Convection Algorithm {Simple-Detailed-CeilingDiffuser-TrombeWall},Zone Outside Convection Algorithm {Simple-Detailed-Tarp-MoWitt-DOE-2-BLAST}, Floor Area {m2},Exterior Gross Wall Area {m2},Exterior Net Wall Area {m2},Exterior Window Area {m2}, Number of Surfaces, Number of SubSurfaces, Number of Shading SubSurfaces,  Part of Total Building Area
 Zone Information, ZONE SMALLOFFICE WHOLEBUILDING - SM OFFICE A  - STORY GROUND,0.0,-76.28,-53.90,0.00,-1.94E-013,-51.62,1.52,1,1,1,-76.28,76.28,-53.90,-49.33,0.00,3.05,3.05,2126.05,TARP,DOE-2,697.52,465.01,395.26,69.75,6,1,0,Yes
 Zone Information, ZONE SMALLOFFICE WHOLEBUILDING - SM OFFICE A END_A - STORY GROUND,0.0,-80.85,-53.90,0.00,-78.57,-51.62,1.52,1,1,1,-80.85,-76.28,-53.90,-49.33,0.00,3.05,3.05,63.71,TARP,DOE-2,20.90,27.87,23.69,4.18,6,2,0,Yes
 Zone Information, ZONE SMALLOFFICE WHOLEBUILDING - SM OFFICE A END_B - STORY GROUND,0.0,76.28,-53.90,0.00,78.57,-51.62,1.52,1,1,1,76.28,80.85,-53.90,-49.33,0.00,3.05,3.05,63.71,TARP,DOE-2,20.90,27.87,23.69,4.18,6,2,0,Yes
 Zone Information, ZONE SMALLOFFICE WHOLEBUILDING - SM OFFICE B  - STORY GROUND,0.0,-76.28,-49.33,0.00,-1.99E-013,-1.76E-014,1.52,1,1,1,-76.28,76.28,-49.33,49.33,0.00,3.05,3.05,45878.98,TARP,DOE-2,15052.16,0.00,0.00,0.00,6,0,0,Yes
 Zone Information, ZONE SMALLOFFICE WHOLEBUILDING - SM OFFICE B END_A - STORY GROUND,0.0,-80.85,-49.33,0.00,-78.57,-1.83E-014,1.52,1,1,1,-80.85,-76.28,-49.33,49.33,0.00,3.05,3.05,1374.89,TARP,DOE-2,451.08,300.72,255.61,45.11,6,1,0,Yes
 Zone Information, ZONE SMALLOFFICE WHOLEBUILDING - SM OFFICE B END_B - STORY GROUND,0.0,76.28,-49.33,0.00,78.57,-1.83E-014,1.52,1,1,1,76.28,80.85,-49.33,49.33,0.00,3.05,3.05,1374.89,TARP,DOE-2,451.08,300.72,255.61,45.11,6,1,0,Yes
 Zone Information, ZONE SMALLOFFICE WHOLEBUILDING - SM OFFICE C  - STORY GROUND,0.0,-76.28,49.33,0.00,-1.94E-013,51.62,1.52,1,1,1,-76.28,76.28,49.33,53.90,0.00,3.05,3.05,2126.05,TARP,DOE-2,697.52,465.01,395.26,69.75,6,1,0,Yes
 Zone Information, ZONE SMALLOFFICE WHOLEBUILDING - SM OFFICE C END_A - STORY GROUND,0.0,-80.85,49.33,0.00,-78.57,51.62,1.52,1,1,1,-80.85,-76.28,49.33,53.90,0.00,3.05,3.05,63.71,TARP,DOE-2,20.90,27.87,23.69,4.18,6,2,0,Yes
 Zone Information, ZONE SMALLOFFICE WHOLEBUILDING - SM OFFICE C END_B - STORY GROUND,0.0,76.28,49.33,0.00,78.57,51.62,1.52,1,1,1,76.28,80.85,49.33,53.90,0.00,3.05,3.05,63.71,TARP,DOE-2,20.90,27.87,23.69,4.18,6,2,0,Yes
! <Zone Internal Gains Nominal>,Zone Name, Floor Area {m2},# Occupants,Area per Occupant {m2/person},Occupant per Area {person/m2},Interior Lighting {W/m2},Electric Load {W/m2},Gas Load {W/m2},Other Load {W/m2},Hot Water Eq {W/m2},Steam Equipment {W/m2},Sum Loads per Area {W/m2},Outdoor Controlled Baseboard Heat
 Zone Internal Gains Nominal, ZONE SMALLOFFICE WHOLEBUILDING - SM OFFICE A  - STORY GROUND,697.52,42.0,16.590,6.028E-002,10.764,6.781,0.000,0.000,0.000,0.000,17.545,No
 Zone Internal Gains Nominal, ZONE SMALLOFFICE WHOLEBUILDING - SM OFFICE A END_A - STORY GROUND,20.90,1.3,16.590,6.028E-002,10.764,6.781,0.000,0.000,0.000,0.000,17.545,No
 Zone Internal Gains Nominal, ZONE SMALLOFFICE WHOLEBUILDING - SM OFFICE A END_B - STORY GROUND,20.90,1.3,16.590,6.028E-002,10.764,6.781,0.000,0.000,0.000,0.000,17.545,No
 Zone Internal Gains Nominal, ZONE SMALLOFFICE WHOLEBUILDING - SM OFFICE B  - STORY GROUND,15052.16,907.3,16.590,6.028E-002,10.764,6.781,0.000,0.000,0.000,0.000,17.545,No
 Zone Internal Gains Nominal, ZONE SMALLOFFICE WHOLEBUILDING - SM OFFICE B END_A - STORY GROUND,451.08,27.2,16.590,6.028E-002,10.764,6.781,0.000,0.000,0.000,0.000,17.545,No
 Zone Internal Gains Nominal, ZONE SMALLOFFICE WHOLEBUILDING - SM OFFICE B END_B - STORY GROUND,451.08,27.2,16.590,6.028E-002,10.764,6.781,0.000,0.000,0.000,0.000,17.545,No
 Zone Internal Gains Nominal, ZONE SMALLOFFICE WHOLEBUILDING - SM OFFICE C  - STORY GROUND,697.52,42.0,16.590,6.028E-002,10.764,6.781,0.000,0.000,0.000,0.000,17.545,No
 Zone Internal Gains Nominal, ZONE SMALLOFFICE WHOLEBUILDING - SM OFFICE C END_A - STORY GROUND,20.90,1.3,16.590,6.028E-002,10.764,6.781,0.000,0.000,0.000,0.000,17.545,No
 Zone Internal Gains Nominal, ZONE SMALLOFFICE WHOLEBUILDING - SM OFFICE C END_B - STORY GROUND,20.90,1.3,16.590,6.028E-002,10.764,6.781,0.000,0.000,0.000,0.000,17.545,No
! <People Internal Gains Nominal>,Name,Schedule Name,Zone Name,Zone Floor Area {m2},# Zone Occupants,Number of People {},People/Floor Area {person/m2},Floor Area per person {m2/person},Fraction Radiant,Fraction Convected,Sensible Fraction Calculation,Activity level,ASHRAE 55 Warnings,Carbon Dioxide Generation Rate,Nominal Minimum Number of People,Nominal Maximum Number of People
 People Internal Gains Nominal, ZONE SMALLOFFICE WHOLEBUILDING - SM OFFICE A  - STORY GROUND SMALLOFFICE WHOLEBUILDING - SM OFFICE PEOPLE,OFFICESMALL BLDG_OCC_SCH,ZONE SMALLOFFICE WHOLEBUILDING - SM OFFICE A  - STORY GROUND,697.52,42.0,42.0,6.028E-002,16.590,0.300,0.700,AutoCalculate,OFFICESMALL ACTIVITY_SCH,No,3.8200E-008,0,42
 People Internal Gains Nominal, ZONE SMALLOFFICE WHOLEBUILDING - SM OFFICE A END_A - STORY GROUND SMALLOFFICE WHOLEBUILDING - SM OFFICE PEOPLE,OFFICESMALL BLDG_OCC_SCH,ZONE SMALLOFFICE WHOLEBUILDING - SM OFFICE A END_A - STORY GROUND,20.90,1.3,1.3,6.028E-002,16.590,0.300,0.700,AutoCalculate,OFFICESMALL ACTIVITY_SCH,No,3.8200E-008,0,1
 People Internal Gains Nominal, ZONE SMALLOFFICE WHOLEBUILDING - SM OFFICE A END_B - STORY GROUND SMALLOFFICE WHOLEBUILDING - SM OFFICE PEOPLE,OFFICESMALL BLDG_OCC_SCH,ZONE SMALLOFFICE WHOLEBUILDING - SM OFFICE A END_B - STORY GROUND,20.90,1.3,1.3,6.028E-002,16.590,0.300,0.700,AutoCalculate,OFFICESMALL ACTIVITY_SCH,No,3.8200E-008,0,1
 People Internal Gains Nominal, ZONE SMALLOFFICE WHOLEBUILDING - SM OFFICE B  - STORY GROUND SMALLOFFICE WHOLEBUILDING - SM OFFICE PEOPLE,OFFICESMALL BLDG_OCC_SCH,ZONE SMALLOFFICE WHOLEBUILDING - SM OFFICE B  - STORY GROUND,15052.16,907.3,907.3,6.028E-002,16.590,0.300,0.700,AutoCalculate,OFFICESMALL ACTIVITY_SCH,No,3.8200E-008,0,907
 People Internal Gains Nominal, ZONE SMALLOFFICE WHOLEBUILDING - SM OFFICE B END_A - STORY GROUND SMALLOFFICE WHOLEBUILDING - SM OFFICE PEOPLE,OFFICESMALL BLDG_OCC_SCH,ZONE SMALLOFFICE WHOLEBUILDING - SM OFFICE B END_A - STORY GROUND,451.08,27.2,27.2,6.028E-002,16.590,0.300,0.700,AutoCalculate,OFFICESMALL ACTIVITY_SCH,No,3.8200E-008,0,27
 People Internal Gains Nominal, ZONE SMALLOFFICE WHOLEBUILDING - SM OFFICE B END_B - STORY GROUND SMALLOFFICE WHOLEBUILDING - SM OFFICE PEOPLE,OFFICESMALL BLDG_OCC_SCH,ZONE SMALLOFFICE WHOLEBUILDING - SM OFFICE B END_B - STORY GROUND,451.08,27.2,27.2,6.028E-002,16.590,0.300,0.700,AutoCalculate,OFFICESMALL ACTIVITY_SCH,No,3.8200E-008,0,27
 People Internal Gains Nominal, ZONE SMALLOFFICE WHOLEBUILDING - SM OFFICE C  - STORY GROUND SMALLOFFICE WHOLEBUILDING - SM OFFICE PEOPLE,OFFICESMALL BLDG_OCC_SCH,ZONE SMALLOFFICE WHOLEBUILDING - SM OFFICE C  - STORY GROUND,697.52,42.0,42.0,6.028E-002,16.590,0.300,0.700,AutoCalculate,OFFICESMALL ACTIVITY_SCH,No,3.8200E-008,0,42
 People Internal Gains Nominal, ZONE SMALLOFFICE WHOLEBUILDING - SM OFFICE C END_A - STORY GROUND SMALLOFFICE WHOLEBUILDING - SM OFFICE PEOPLE,OFFICESMALL BLDG_OCC_SCH,ZONE SMALLOFFICE WHOLEBUILDING - SM OFFICE C END_A - STORY GROUND,20.90,1.3,1.3,6.028E-002,16.590,0.300,0.700,AutoCalculate,OFFICESMALL ACTIVITY_SCH,No,3.8200E-008,0,1
 People Internal Gains Nominal, ZONE SMALLOFFICE WHOLEBUILDING - SM OFFICE C END_B - STORY GROUND SMALLOFFICE WHOLEBUILDING - SM OFFICE PEOPLE,OFFICESMALL BLDG_OCC_SCH,ZONE SMALLOFFICE WHOLEBUILDING - SM OFFICE C END_B - STORY GROUND,20.90,1.3,1.3,6.028E-002,16.590,0.300,0.700,AutoCalculate,OFFICESMALL ACTIVITY_SCH,No,3.8200E-008,0,1
! <Lights Internal Gains Nominal>,Name,Schedule Name,Zone Name,Zone Floor Area {m2},# Zone Occupants,Lighting Level {W},Lights/Floor Area {W/m2},Lights per person {W/person},Fraction Return Air,Fraction Radiant,Fraction Short Wave,Fraction Convected,Fraction Replaceable,End-Use Category,Nominal Minimum Lighting Level {W},Nominal Maximum Lighting Level {W}
 Lights Internal Gains Nominal, ZONE SMALLOFFICE WHOLEBUILDING - SM OFFICE A  - STORY GROUND SMALLOFFICE WHOLEBUILDING - SM OFFICE LIGHTS,OFFICESMALL BLDG_LIGHT_SCH,ZONE SMALLOFFICE WHOLEBUILDING - SM OFFICE A  - STORY GROUND,697.52,42.0,7508.069,10.764,178.571,0.000,0.700,0.200,0.100,1.000,General,0.000,7508.069
 Lights Internal Gains Nominal, ZONE SMALLOFFICE WHOLEBUILDING - SM OFFICE A END_A - STORY GROUND SMALLOFFICE WHOLEBUILDING - SM OFFICE LIGHTS,OFFICESMALL BLDG_LIGHT_SCH,ZONE SMALLOFFICE WHOLEBUILDING - SM OFFICE A END_A - STORY GROUND,20.90,1.3,225.000,10.764,178.571,0.000,0.700,0.200,0.100,1.000,General,0.000,225.000
 Lights Internal Gains Nominal, ZONE SMALLOFFICE WHOLEBUILDING - SM OFFICE A END_B - STORY GROUND SMALLOFFICE WHOLEBUILDING - SM OFFICE LIGHTS,OFFICESMALL BLDG_LIGHT_SCH,ZONE SMALLOFFICE WHOLEBUILDING - SM OFFICE A END_B - STORY GROUND,20.90,1.3,225.000,10.764,178.571,0.000,0.700,0.200,0.100,1.000,General,0.000,225.000
 Lights Internal Gains Nominal, ZONE SMALLOFFICE WHOLEBUILDING - SM OFFICE B  - STORY GROUND SMALLOFFICE WHOLEBUILDING - SM OFFICE LIGHTS,OFFICESMALL BLDG_LIGHT_SCH,ZONE SMALLOFFICE WHOLEBUILDING - SM OFFICE B  - STORY GROUND,15052.16,907.3,162020.103,10.764,178.571,0.000,0.700,0.200,0.100,1.000,General,0.000,162020.103
 Lights Internal Gains Nominal, ZONE SMALLOFFICE WHOLEBUILDING - SM OFFICE B END_A - STORY GROUND SMALLOFFICE WHOLEBUILDING - SM OFFICE LIGHTS,OFFICESMALL BLDG_LIGHT_SCH,ZONE SMALLOFFICE WHOLEBUILDING - SM OFFICE B END_A - STORY GROUND,451.08,27.2,4855.379,10.764,178.571,0.000,0.700,0.200,0.100,1.000,General,0.000,4855.379
 Lights Internal Gains Nominal, ZONE SMALLOFFICE WHOLEBUILDING - SM OFFICE B END_B - STORY GROUND SMALLOFFICE WHOLEBUILDING - SM OFFICE LIGHTS,OFFICESMALL BLDG_LIGHT_SCH,ZONE SMALLOFFICE WHOLEBUILDING - SM OFFICE B END_B - STORY GROUND,451.08,27.2,4855.379,10.764,178.571,0.000,0.700,0.200,0.100,1.000,General,0.000,4855.379
 Lights Internal Gains Nominal, ZONE SMALLOFFICE WHOLEBUILDING - SM OFFICE C  - STORY GROUND SMALLOFFICE WHOLEBUILDING - SM OFFICE LIGHTS,OFFICESMALL BLDG_LIGHT_SCH,ZONE SMALLOFFICE WHOLEBUILDING - SM OFFICE C  - STORY GROUND,697.52,42.0,7508.069,10.764,178.571,0.000,0.700,0.200,0.100,1.000,General,0.000,7508.069
 Lights Internal Gains Nominal, ZONE SMALLOFFICE WHOLEBUILDING - SM OFFICE C END_A - STORY GROUND SMALLOFFICE WHOLEBUILDING - SM OFFICE LIGHTS,OFFICESMALL BLDG_LIGHT_SCH,ZONE SMALLOFFICE WHOLEBUILDING - SM OFFICE C END_A - STORY GROUND,20.90,1.3,225.000,10.764,178.571,0.000,0.700,0.200,0.100,1.000,General,0.000,225.000
 Lights Internal Gains Nominal, ZONE SMALLOFFICE WHOLEBUILDING - SM OFFICE C END_B - STORY GROUND SMALLOFFICE WHOLEBUILDING - SM OFFICE LIGHTS,OFFICESMALL BLDG_LIGHT_SCH,ZONE SMALLOFFICE WHOLEBUILDING - SM OFFICE C END_B - STORY GROUND,20.90,1.3,225.000,10.764,178.571,0.000,0.700,0.200,0.100,1.000,General,0.000,225.000
! <ElectricEquipment Internal Gains Nominal>,Name,Schedule Name,Zone Name,Zone Floor Area {m2},# Zone Occupants,Equipment Level {W},Equipment/Floor Area {W/m2},Equipment per person {W/person},Fraction Latent,Fraction Radiant,Fraction Lost,Fraction Convected,End-Use SubCategory,Nominal Minimum Equipment Level {W},Nominal Maximum Equipment Level {W}
 ElectricEquipment Internal Gains Nominal, ZONE SMALLOFFICE WHOLEBUILDING - SM OFFICE A  - STORY GROUND SMALLOFFICE WHOLEBUILDING - SM OFFICE ELEC EQUIP,OFFICESMALL BLDG_EQUIP_SCH,ZONE SMALLOFFICE WHOLEBUILDING - SM OFFICE A  - STORY GROUND,697.52,42.0,4730.083,6.781,112.500,0.000,0.500,0.000,0.500,General,0.000,4730.083
 ElectricEquipment Internal Gains Nominal, ZONE SMALLOFFICE WHOLEBUILDING - SM OFFICE A END_A - STORY GROUND SMALLOFFICE WHOLEBUILDING - SM OFFICE ELEC EQUIP,OFFICESMALL BLDG_EQUIP_SCH,ZONE SMALLOFFICE WHOLEBUILDING - SM OFFICE A END_A - STORY GROUND,20.90,1.3,141.750,6.781,112.500,0.000,0.500,0.000,0.500,General,0.000,141.750
 ElectricEquipment Internal Gains Nominal, ZONE SMALLOFFICE WHOLEBUILDING - SM OFFICE A END_B - STORY GROUND SMALLOFFICE WHOLEBUILDING - SM OFFICE ELEC EQUIP,OFFICESMALL BLDG_EQUIP_SCH,ZONE SMALLOFFICE WHOLEBUILDING - SM OFFICE A END_B - STORY GROUND,20.90,1.3,141.750,6.781,112.500,0.000,0.500,0.000,0.500,General,0.000,141.750
 ElectricEquipment Internal Gains Nominal, ZONE SMALLOFFICE WHOLEBUILDING - SM OFFICE B  - STORY GROUND SMALLOFFICE WHOLEBUILDING - SM OFFICE ELEC EQUIP,OFFICESMALL BLDG_EQUIP_SCH,ZONE SMALLOFFICE WHOLEBUILDING - SM OFFICE B  - STORY GROUND,15052.16,907.3,102072.665,6.781,112.500,0.000,0.500,0.000,0.500,General,0.000,102072.665
 ElectricEquipment Internal Gains Nominal, ZONE SMALLOFFICE WHOLEBUILDING - SM OFFICE B END_A - STORY GROUND SMALLOFFICE WHOLEBUILDING - SM OFFICE ELEC EQUIP,OFFICESMALL BLDG_EQUIP_SCH,ZONE SMALLOFFICE WHOLEBUILDING - SM OFFICE B END_A - STORY GROUND,451.08,27.2,3058.889,6.781,112.500,0.000,0.500,0.000,0.500,General,0.000,3058.889
 ElectricEquipment Internal Gains Nominal, ZONE SMALLOFFICE WHOLEBUILDING - SM OFFICE B END_B - STORY GROUND SMALLOFFICE WHOLEBUILDING - SM OFFICE ELEC EQUIP,OFFICESMALL BLDG_EQUIP_SCH,ZONE SMALLOFFICE WHOLEBUILDING - SM OFFICE B END_B - STORY GROUND,451.08,27.2,3058.889,6.781,112.500,0.000,0.500,0.000,0.500,General,0.000,3058.889
 ElectricEquipment Internal Gains Nominal, ZONE SMALLOFFICE WHOLEBUILDING - SM OFFICE C  - STORY GROUND SMALLOFFICE WHOLEBUILDING - SM OFFICE ELEC EQUIP,OFFICESMALL BLDG_EQUIP_SCH,ZONE SMALLOFFICE WHOLEBUILDING - SM OFFICE C  - STORY GROUND,697.52,42.0,4730.083,6.781,112.500,0.000,0.500,0.000,0.500,General,0.000,4730.083
 ElectricEquipment Internal Gains Nominal, ZONE SMALLOFFICE WHOLEBUILDING - SM OFFICE C END_A - STORY GROUND SMALLOFFICE WHOLEBUILDING - SM OFFICE ELEC EQUIP,OFFICESMALL BLDG_EQUIP_SCH,ZONE SMALLOFFICE WHOLEBUILDING - SM OFFICE C END_A - STORY GROUND,20.90,1.3,141.750,6.781,112.500,0.000,0.500,0.000,0.500,General,0.000,141.750
 ElectricEquipment Internal Gains Nominal, ZONE SMALLOFFICE WHOLEBUILDING - SM OFFICE C END_B - STORY GROUND SMALLOFFICE WHOLEBUILDING - SM OFFICE ELEC EQUIP,OFFICESMALL BLDG_EQUIP_SCH,ZONE SMALLOFFICE WHOLEBUILDING - SM OFFICE C END_B - STORY GROUND,20.90,1.3,141.750,6.781,112.500,0.000,0.500,0.000,0.500,General,0.000,141.750
! <Shadowing/Sun Position Calculations Annual Simulations>, Shading Calculation Method, Shading Calculation Update Frequency Method, Shading Calculation Update Frequency {days}, Maximum Figures in Shadow Overlap Calculations {}, Polygon Clipping Algorithm, Pixel Counting Resolution, Sky Diffuse Modeling Algorithm, Output External Shading Calculation Results, Disable Self-Shading Within Shading Zone Groups, Disable Self-Shading From Shading Zone Groups to Other Zones
Shadowing/Sun Position Calculations Annual Simulations,PolygonClipping,Periodic,20,15000,SutherlandHodgman,512,SimpleSkyDiffuseModeling,No,No,No
! <Water Heater Information>,Type,Name,Volume {m3},Maximum Capacity {W},Standard Rated Recovery Efficiency, Standard Rated Energy Factor
! <ZoneInfiltration Airflow Stats Nominal>,Name,Schedule Name,Zone Name, Zone Floor Area {m2}, # Zone Occupants,Design Volume Flow Rate {m3/s},Volume Flow Rate/Floor Area {m3/s-m2},Volume Flow Rate/Exterior Surface Area {m3/s-m2},ACH - Air Changes per Hour,Equation A - Constant Term Coefficient {},Equation B - Temperature Term Coefficient {1/C},Equation C - Velocity Term Coefficient {s/m}, Equation D - Velocity Squared Term Coefficient {s2/m2}
 ZoneInfiltration Airflow Stats Nominal, SMALLOFFICE WHOLEBUILDING - SM OFFICE A  - STORY GROUND INFILTRATION,ALWAYS ON DISCRETE,ZONE SMALLOFFICE WHOLEBUILDING - SM OFFICE A  - STORY GROUND,697.52,42.0,0.477,6.835E-004,4.101E-004,0.807,0.000,0.000,0.224,0.000
 ZoneInfiltration Airflow Stats Nominal, SMALLOFFICE WHOLEBUILDING - SM OFFICE A END_A - STORY GROUND INFILTRATION,ALWAYS ON DISCRETE,ZONE SMALLOFFICE WHOLEBUILDING - SM OFFICE A END_A - STORY GROUND,20.90,1.3,2.857E-002,1.367E-003,5.858E-004,1.615,0.000,0.000,0.224,0.000
 ZoneInfiltration Airflow Stats Nominal, SMALLOFFICE WHOLEBUILDING - SM OFFICE A END_B - STORY GROUND INFILTRATION,ALWAYS ON DISCRETE,ZONE SMALLOFFICE WHOLEBUILDING - SM OFFICE A END_B - STORY GROUND,20.90,1.3,2.857E-002,1.367E-003,5.858E-004,1.615,0.000,0.000,0.224,0.000
 ZoneInfiltration Airflow Stats Nominal, SMALLOFFICE WHOLEBUILDING - SM OFFICE B END_A - STORY GROUND INFILTRATION,ALWAYS ON DISCRETE,ZONE SMALLOFFICE WHOLEBUILDING - SM OFFICE B END_A - STORY GROUND,451.08,27.2,0.308,6.835E-004,4.101E-004,0.807,0.000,0.000,0.224,0.000
 ZoneInfiltration Airflow Stats Nominal, SMALLOFFICE WHOLEBUILDING - SM OFFICE B END_B - STORY GROUND INFILTRATION,ALWAYS ON DISCRETE,ZONE SMALLOFFICE WHOLEBUILDING - SM OFFICE B END_B - STORY GROUND,451.08,27.2,0.308,6.835E-004,4.101E-004,0.807,0.000,0.000,0.224,0.000
 ZoneInfiltration Airflow Stats Nominal, SMALLOFFICE WHOLEBUILDING - SM OFFICE C  - STORY GROUND INFILTRATION,ALWAYS ON DISCRETE,ZONE SMALLOFFICE WHOLEBUILDING - SM OFFICE C  - STORY GROUND,697.52,42.0,0.477,6.835E-004,4.101E-004,0.807,0.000,0.000,0.224,0.000
 ZoneInfiltration Airflow Stats Nominal, SMALLOFFICE WHOLEBUILDING - SM OFFICE C END_A - STORY GROUND INFILTRATION,ALWAYS ON DISCRETE,ZONE SMALLOFFICE WHOLEBUILDING - SM OFFICE C END_A - STORY GROUND,20.90,1.3,2.857E-002,1.367E-003,5.858E-004,1.615,0.000,0.000,0.224,0.000
 ZoneInfiltration Airflow Stats Nominal, SMALLOFFICE WHOLEBUILDING - SM OFFICE C END_B - STORY GROUND INFILTRATION,ALWAYS ON DISCRETE,ZONE SMALLOFFICE WHOLEBUILDING - SM OFFICE C END_B - STORY GROUND,20.90,1.3,2.857E-002,1.367E-003,5.858E-004,1.615,0.000,0.000,0.224,0.000
! <AirFlow Model>, Simple
 AirFlow Model, Simple
! <RoomAir Model>, Zone Name, Mixing/Mundt/UCSDDV/UCSDCV/UCSDUFI/UCSDUFE/User Defined
RoomAir Model,ZONE SMALLOFFICE WHOLEBUILDING - SM OFFICE A  - STORY GROUND,Mixing/Well-Stirred
RoomAir Model,ZONE SMALLOFFICE WHOLEBUILDING - SM OFFICE A END_A - STORY GROUND,Mixing/Well-Stirred
RoomAir Model,ZONE SMALLOFFICE WHOLEBUILDING - SM OFFICE A END_B - STORY GROUND,Mixing/Well-Stirred
RoomAir Model,ZONE SMALLOFFICE WHOLEBUILDING - SM OFFICE B  - STORY GROUND,Mixing/Well-Stirred
RoomAir Model,ZONE SMALLOFFICE WHOLEBUILDING - SM OFFICE B END_A - STORY GROUND,Mixing/Well-Stirred
RoomAir Model,ZONE SMALLOFFICE WHOLEBUILDING - SM OFFICE B END_B - STORY GROUND,Mixing/Well-Stirred
RoomAir Model,ZONE SMALLOFFICE WHOLEBUILDING - SM OFFICE C  - STORY GROUND,Mixing/Well-Stirred
RoomAir Model,ZONE SMALLOFFICE WHOLEBUILDING - SM OFFICE C END_A - STORY GROUND,Mixing/Well-Stirred
RoomAir Model,ZONE SMALLOFFICE WHOLEBUILDING - SM OFFICE C END_B - STORY GROUND,Mixing/Well-Stirred
! <AirflowNetwork Model:Control>, No Multizone or Distribution/Multizone with Distribution/Multizone without Distribution/Multizone with Distribution only during Fan Operation
AirflowNetwork Model:Control,NoMultizoneOrDistribution
! <Zone Volume Capacitance Multiplier>, Sensible Heat Capacity Multiplier, Moisture Capacity Multiplier, Carbon Dioxide Capacity Multiplier, Generic Contaminant Capacity Multiplier
Zone Volume Capacitance Multiplier,   1.000 ,   1.000,   1.000,   1.000
! <Load Timesteps in Zone Design Calculation Averaging Window>, Value
 Load Timesteps in Zone Design Calculation Averaging Window,    6
! <Heating Sizing Factor Information>, Sizing Factor ID, Value
 Heating Sizing Factor Information, Global,   1.2500    
 Heating Sizing Factor Information, Zone ZONE SMALLOFFICE WHOLEBUILDING - SM OFFICE A  - STORY GROUND,   1.2500    
 Heating Sizing Factor Information, Zone ZONE SMALLOFFICE WHOLEBUILDING - SM OFFICE A END_A - STORY GROUND,   1.2500    
 Heating Sizing Factor Information, Zone ZONE SMALLOFFICE WHOLEBUILDING - SM OFFICE A END_B - STORY GROUND,   1.2500    
 Heating Sizing Factor Information, Zone ZONE SMALLOFFICE WHOLEBUILDING - SM OFFICE B  - STORY GROUND,   1.2500    
 Heating Sizing Factor Information, Zone ZONE SMALLOFFICE WHOLEBUILDING - SM OFFICE B END_A - STORY GROUND,   1.2500    
 Heating Sizing Factor Information, Zone ZONE SMALLOFFICE WHOLEBUILDING - SM OFFICE B END_B - STORY GROUND,   1.2500    
 Heating Sizing Factor Information, Zone ZONE SMALLOFFICE WHOLEBUILDING - SM OFFICE C  - STORY GROUND,   1.2500    
 Heating Sizing Factor Information, Zone ZONE SMALLOFFICE WHOLEBUILDING - SM OFFICE C END_A - STORY GROUND,   1.2500    
 Heating Sizing Factor Information, Zone ZONE SMALLOFFICE WHOLEBUILDING - SM OFFICE C END_B - STORY GROUND,   1.2500    
! <Cooling Sizing Factor Information>, Sizing Factor ID, Value
 Cooling Sizing Factor Information, Global,   1.1500    
 Cooling Sizing Factor Information, Zone ZONE SMALLOFFICE WHOLEBUILDING - SM OFFICE A  - STORY GROUND,   1.1500    
 Cooling Sizing Factor Information, Zone ZONE SMALLOFFICE WHOLEBUILDING - SM OFFICE A END_A - STORY GROUND,   1.1500    
 Cooling Sizing Factor Information, Zone ZONE SMALLOFFICE WHOLEBUILDING - SM OFFICE A END_B - STORY GROUND,   1.1500    
 Cooling Sizing Factor Information, Zone ZONE SMALLOFFICE WHOLEBUILDING - SM OFFICE B  - STORY GROUND,   1.1500    
 Cooling Sizing Factor Information, Zone ZONE SMALLOFFICE WHOLEBUILDING - SM OFFICE B END_A - STORY GROUND,   1.1500    
 Cooling Sizing Factor Information, Zone ZONE SMALLOFFICE WHOLEBUILDING - SM OFFICE B END_B - STORY GROUND,   1.1500    
 Cooling Sizing Factor Information, Zone ZONE SMALLOFFICE WHOLEBUILDING - SM OFFICE C  - STORY GROUND,   1.1500    
 Cooling Sizing Factor Information, Zone ZONE SMALLOFFICE WHOLEBUILDING - SM OFFICE C END_A - STORY GROUND,   1.1500    
 Cooling Sizing Factor Information, Zone ZONE SMALLOFFICE WHOLEBUILDING - SM OFFICE C END_B - STORY GROUND,   1.1500    
! <Zone Sizing Information>, Zone Name, Load Type, Calc Des Load {W}, User Des Load {W}, Calc Des Air Flow Rate {m3/s}, User Des Air Flow Rate {m3/s}, Design Day Name, Date/Time of Peak, Temperature at Peak {C}, Humidity Ratio at Peak {kgWater/kgDryAir}, Floor Area {m2}, # Occupants, Calc Outdoor Air Flow Rate {m3/s}, Calc DOAS Heat Addition Rate {W}
 Zone Sizing Information, ZONE SMALLOFFICE WHOLEBUILDING - SM OFFICE A  - STORY GROUND, Cooling, 15477.28796, 17798.88116, 1.13357, 1.30361, CLIMATE ZONE 3 ANN CLG .4% CONDNS DB=>MWB, 8/21 13:30:00, 27.51500, 9.32312E-003, 697.52244, 42.04519, 0.35434, 0.00000
 Zone Sizing Information, ZONE SMALLOFFICE WHOLEBUILDING - SM OFFICE A  - STORY GROUND, Heating, 14009.63554, 17512.04442, 0.39496, 0.49370, CLIMATE ZONE 3 ANN HTG 99.6% CONDNS DB, 1/21 24:00:00, 2.90000, 4.65595E-003, 697.52244, 42.04519, 0.35434, 0.00000
 Zone Sizing Information, ZONE SMALLOFFICE WHOLEBUILDING - SM OFFICE A END_A - STORY GROUND, Cooling, 799.60005, 919.54005, 5.85627E-002, 6.73471E-002, CLIMATE ZONE 3 ANN CLG .4% CONDNS DB=>MWB, 8/21 15:50:00, 27.33000, 9.32282E-003, 20.90318, 1.26000, 1.06188E-002, 0.00000
 Zone Sizing Information, ZONE SMALLOFFICE WHOLEBUILDING - SM OFFICE A END_A - STORY GROUND, Heating, 679.13714, 848.92142, 1.91458E-002, 2.39323E-002, CLIMATE ZONE 3 ANN HTG 99.6% CONDNS DB, 1/21 24:00:00, 2.90000, 4.65595E-003, 20.90318, 1.26000, 1.06188E-002, 0.00000
 Zone Sizing Information, ZONE SMALLOFFICE WHOLEBUILDING - SM OFFICE A END_B - STORY GROUND, Cooling, 681.37832, 783.58507, 4.99042E-002, 5.73898E-002, CLIMATE ZONE 3 ANN CLG .4% CONDNS DB=>MWB, 8/21 11:00:00, 25.99800, 9.32067E-003, 20.90318, 1.26000, 1.06188E-002, 0.00000
 Zone Sizing Information, ZONE SMALLOFFICE WHOLEBUILDING - SM OFFICE A END_B - STORY GROUND, Heating, 678.95263, 848.69079, 1.91406E-002, 2.39258E-002, CLIMATE ZONE 3 ANN HTG 99.6% CONDNS DB, 1/21 24:00:00, 2.90000, 4.65595E-003, 20.90318, 1.26000, 1.06188E-002, 0.00000
 Zone Sizing Information, ZONE SMALLOFFICE WHOLEBUILDING - SM OFFICE B  - STORY GROUND, Cooling, 143445.57503, 164962.41128, 10.50648, 12.08246, CLIMATE ZONE 3 ANN CLG .4% CONDNS DB=>MWB, 8/21 13:40:00, 27.57667, 9.32322E-003, 15052.16014, 907.31258, 7.64650, 0.00000
 Zone Sizing Information, ZONE SMALLOFFICE WHOLEBUILDING - SM OFFICE B  - STORY GROUND, Heating, 125734.62450, 157168.28062, 3.54483, 7.64650, CLIMATE ZONE 3 ANN HTG 99.6% CONDNS DB, 1/21 24:00:00, 2.90000, 4.65595E-003, 15052.16014, 907.31258, 7.64650, 0.00000
 Zone Sizing Information, ZONE SMALLOFFICE WHOLEBUILDING - SM OFFICE B END_A - STORY GROUND, Cooling, 12440.17629, 14306.20273, 0.91113, 1.04780, CLIMATE ZONE 3 ANN CLG .4% CONDNS DB=>MWB, 8/21 16:30:00, 26.96000, 9.32222E-003, 451.07950, 27.19012, 0.22915, 0.00000
 Zone Sizing Information, ZONE SMALLOFFICE WHOLEBUILDING - SM OFFICE B END_A - STORY GROUND, Heating, 9080.12705, 11350.15881, 0.25599, 0.31998, CLIMATE ZONE 3 ANN HTG 99.6% CONDNS DB, 1/21 24:00:00, 2.90000, 4.65595E-003, 451.07950, 27.19012, 0.22915, 0.00000
 Zone Sizing Information, ZONE SMALLOFFICE WHOLEBUILDING - SM OFFICE B END_B - STORY GROUND, Cooling, 10190.48652, 11719.05949, 0.74636, 0.85832, CLIMATE ZONE 3 ANN CLG .4% CONDNS DB=>MWB, 8/21 09:40:00, 24.46867, 9.31823E-003, 451.07950, 27.19012, 0.22915, 0.00000
 Zone Sizing Information, ZONE SMALLOFFICE WHOLEBUILDING - SM OFFICE B END_B - STORY GROUND, Heating, 9075.94158, 11344.92698, 0.25587, 0.31984, CLIMATE ZONE 3 ANN HTG 99.6% CONDNS DB, 1/21 24:00:00, 2.90000, 4.65595E-003, 451.07950, 27.19012, 0.22915, 0.00000
 Zone Sizing Information, ZONE SMALLOFFICE WHOLEBUILDING - SM OFFICE C  - STORY GROUND, Cooling, 10131.72002, 11651.47802, 0.74206, 0.85337, CLIMATE ZONE 3 ANN CLG .4% CONDNS DB=>MWB, 8/21 14:10:00, 27.70000, 9.32342E-003, 697.52244, 42.04519, 0.35434, 0.00000
 Zone Sizing Information, ZONE SMALLOFFICE WHOLEBUILDING - SM OFFICE C  - STORY GROUND, Heating, 14003.17716, 17503.97145, 0.39478, 0.49347, CLIMATE ZONE 3 ANN HTG 99.6% CONDNS DB, 1/21 24:00:00, 2.90000, 4.65595E-003, 697.52244, 42.04519, 0.35434, 0.00000
 Zone Sizing Information, ZONE SMALLOFFICE WHOLEBUILDING - SM OFFICE C END_A - STORY GROUND, Cooling, 689.84284, 793.31927, 5.05242E-002, 5.81028E-002, CLIMATE ZONE 3 ANN CLG .4% CONDNS DB=>MWB, 8/21 16:30:00, 26.96000, 9.32222E-003, 20.90318, 1.26000, 1.06188E-002, 0.00000
 Zone Sizing Information, ZONE SMALLOFFICE WHOLEBUILDING - SM OFFICE C END_A - STORY GROUND, Heating, 678.95264, 848.69080, 1.91406E-002, 2.39258E-002, CLIMATE ZONE 3 ANN HTG 99.6% CONDNS DB, 1/21 24:00:00, 2.90000, 4.65595E-003, 20.90318, 1.26000, 1.06188E-002, 0.00000
 Zone Sizing Information, ZONE SMALLOFFICE WHOLEBUILDING - SM OFFICE C END_B - STORY GROUND, Cooling, 550.49015, 633.06367, 4.03180E-002, 4.63657E-002, CLIMATE ZONE 3 ANN CLG .4% CONDNS DB=>MWB, 8/21 10:10:00, 25.07300, 9.31920E-003, 20.90318, 1.26000, 1.06188E-002, 0.00000
 Zone Sizing Information, ZONE SMALLOFFICE WHOLEBUILDING - SM OFFICE C END_B - STORY GROUND, Heating, 678.76809, 848.46011, 1.91354E-002, 2.39193E-002, CLIMATE ZONE 3 ANN HTG 99.6% CONDNS DB, 1/21 24:00:00, 2.90000, 4.65595E-003, 20.90318, 1.26000, 1.06188E-002, 0.00000
! <System Sizing Information>, System Name, Load Type, Peak Load Kind, User Design Capacity, Calc Des Air Flow Rate [m3/s], User Des Air Flow Rate [m3/s], Design Day Name, Date/Time of Peak
 System Sizing Information, ZONE SMALLOFFICE WHOLEBUILDING - SM OFFICE A  - STORY GROUND PSZ-AC, Cooling, Sensible, 19078.41, 1.30361, 1.30361, CLIMATE ZONE 3 ANN CLG .4% CONDNS DB=>MWB, 8/21 05:00:00
 System Sizing Information, ZONE SMALLOFFICE WHOLEBUILDING - SM OFFICE A  - STORY GROUND PSZ-AC, Heating, Sensible, 25063.34, 0.49370, 0.49370, CLIMATE ZONE 3 ANN HTG 99.6% CONDNS DB, 1/21 24:00:00
 System Sizing Information, ZONE SMALLOFFICE WHOLEBUILDING - SM OFFICE A END_A - STORY GROUND PSZ-AC, Cooling, Sensible, 949.96, 6.73471E-002, 6.73471E-002, CLIMATE ZONE 3 ANN CLG .4% CONDNS DB=>MWB, 8/21 05:00:00
 System Sizing Information, ZONE SMALLOFFICE WHOLEBUILDING - SM OFFICE A END_A - STORY GROUND PSZ-AC, Heating, Sensible, 1070.49, 2.39323E-002, 2.39323E-002, CLIMATE ZONE 3 ANN HTG 99.6% CONDNS DB, 1/21 24:00:00
 System Sizing Information, ZONE SMALLOFFICE WHOLEBUILDING - SM OFFICE A END_B - STORY GROUND PSZ-AC, Cooling, Sensible, 798.89, 5.73898E-002, 5.73898E-002, CLIMATE ZONE 3 ANN CLG .4% CONDNS DB=>MWB, 8/21 05:00:00
 System Sizing Information, ZONE SMALLOFFICE WHOLEBUILDING - SM OFFICE A END_B - STORY GROUND PSZ-AC, Heating, Sensible, 1070.26, 2.39258E-002, 2.39258E-002, CLIMATE ZONE 3 ANN HTG 99.6% CONDNS DB, 1/21 24:00:00
 System Sizing Information, ZONE SMALLOFFICE WHOLEBUILDING - SM OFFICE B  - STORY GROUND PSZ-AC, Cooling, Sensible, 197522.29, 12.08246, 12.08246, CLIMATE ZONE 3 ANN CLG .4% CONDNS DB=>MWB, 8/21 05:00:00
 System Sizing Information, ZONE SMALLOFFICE WHOLEBUILDING - SM OFFICE B  - STORY GROUND PSZ-AC, Heating, Sensible, 435735.81, 7.64650, 7.64650, CLIMATE ZONE 3 ANN HTG 99.6% CONDNS DB, 1/21 00:10:00
 System Sizing Information, ZONE SMALLOFFICE WHOLEBUILDING - SM OFFICE B END_A - STORY GROUND PSZ-AC, Cooling, Sensible, 14936.55, 1.04780, 1.04780, CLIMATE ZONE 3 ANN CLG .4% CONDNS DB=>MWB, 8/21 05:00:00
 System Sizing Information, ZONE SMALLOFFICE WHOLEBUILDING - SM OFFICE B END_A - STORY GROUND PSZ-AC, Heating, Sensible, 16233.12, 0.31998, 0.31998, CLIMATE ZONE 3 ANN HTG 99.6% CONDNS DB, 1/21 24:00:00
 System Sizing Information, ZONE SMALLOFFICE WHOLEBUILDING - SM OFFICE B END_B - STORY GROUND PSZ-AC, Cooling, Sensible, 11744.49, 0.85832, 0.85832, CLIMATE ZONE 3 ANN CLG .4% CONDNS DB=>MWB, 8/21 05:00:00
 System Sizing Information, ZONE SMALLOFFICE WHOLEBUILDING - SM OFFICE B END_B - STORY GROUND PSZ-AC, Heating, Sensible, 16227.97, 0.31984, 0.31984, CLIMATE ZONE 3 ANN HTG 99.6% CONDNS DB, 1/21 24:00:00
 System Sizing Information, ZONE SMALLOFFICE WHOLEBUILDING - SM OFFICE C  - STORY GROUND PSZ-AC, Cooling, Sensible, 13105.38, 0.85337, 0.85337, CLIMATE ZONE 3 ANN CLG .4% CONDNS DB=>MWB, 8/21 05:00:00
 System Sizing Information, ZONE SMALLOFFICE WHOLEBUILDING - SM OFFICE C  - STORY GROUND PSZ-AC, Heating, Sensible, 25055.38, 0.49347, 0.49347, CLIMATE ZONE 3 ANN HTG 99.6% CONDNS DB, 1/21 24:00:00
 System Sizing Information, ZONE SMALLOFFICE WHOLEBUILDING - SM OFFICE C END_A - STORY GROUND PSZ-AC, Cooling, Sensible, 820.64, 5.81028E-002, 5.81028E-002, CLIMATE ZONE 3 ANN CLG .4% CONDNS DB=>MWB, 8/21 05:00:00
 System Sizing Information, ZONE SMALLOFFICE WHOLEBUILDING - SM OFFICE C END_A - STORY GROUND PSZ-AC, Heating, Sensible, 1070.26, 2.39258E-002, 2.39258E-002, CLIMATE ZONE 3 ANN HTG 99.6% CONDNS DB, 1/21 24:00:00
 System Sizing Information, ZONE SMALLOFFICE WHOLEBUILDING - SM OFFICE C END_B - STORY GROUND PSZ-AC, Cooling, Sensible, 640.04, 4.63657E-002, 4.63657E-002, CLIMATE ZONE 3 ANN CLG .4% CONDNS DB=>MWB, 8/21 05:00:00
 System Sizing Information, ZONE SMALLOFFICE WHOLEBUILDING - SM OFFICE C END_B - STORY GROUND PSZ-AC, Heating, Sensible, 1070.03, 2.39193E-002, 2.39193E-002, CLIMATE ZONE 3 ANN HTG 99.6% CONDNS DB, 1/21 24:00:00
! <Component Sizing Information>, Component Type, Component Name, Input Field Description, Value
 Component Sizing Information, AirTerminal:SingleDuct:ConstantVolume:NoReheat, ZONE SMALLOFFICE WHOLEBUILDING - SM OFFICE A  - STORY GROUND PSZ-AC DIFFUSER, Design Size Maximum Air Flow Rate [m3/s], 1.30361
 Component Sizing Information, AirTerminal:SingleDuct:ConstantVolume:NoReheat, ZONE SMALLOFFICE WHOLEBUILDING - SM OFFICE A END_A - STORY GROUND PSZ-AC DIFFUSER, Design Size Maximum Air Flow Rate [m3/s], 6.73471E-002
 Component Sizing Information, AirTerminal:SingleDuct:ConstantVolume:NoReheat, ZONE SMALLOFFICE WHOLEBUILDING - SM OFFICE A END_B - STORY GROUND PSZ-AC DIFFUSER, Design Size Maximum Air Flow Rate [m3/s], 5.73898E-002
 Component Sizing Information, AirTerminal:SingleDuct:ConstantVolume:NoReheat, ZONE SMALLOFFICE WHOLEBUILDING - SM OFFICE B  - STORY GROUND PSZ-AC DIFFUSER, Design Size Maximum Air Flow Rate [m3/s], 12.08246
 Component Sizing Information, AirTerminal:SingleDuct:ConstantVolume:NoReheat, ZONE SMALLOFFICE WHOLEBUILDING - SM OFFICE B END_A - STORY GROUND PSZ-AC DIFFUSER, Design Size Maximum Air Flow Rate [m3/s], 1.04780
 Component Sizing Information, AirTerminal:SingleDuct:ConstantVolume:NoReheat, ZONE SMALLOFFICE WHOLEBUILDING - SM OFFICE B END_B - STORY GROUND PSZ-AC DIFFUSER, Design Size Maximum Air Flow Rate [m3/s], 0.85832
 Component Sizing Information, AirTerminal:SingleDuct:ConstantVolume:NoReheat, ZONE SMALLOFFICE WHOLEBUILDING - SM OFFICE C  - STORY GROUND PSZ-AC DIFFUSER, Design Size Maximum Air Flow Rate [m3/s], 0.85337
 Component Sizing Information, AirTerminal:SingleDuct:ConstantVolume:NoReheat, ZONE SMALLOFFICE WHOLEBUILDING - SM OFFICE C END_A - STORY GROUND PSZ-AC DIFFUSER, Design Size Maximum Air Flow Rate [m3/s], 5.81028E-002
 Component Sizing Information, AirTerminal:SingleDuct:ConstantVolume:NoReheat, ZONE SMALLOFFICE WHOLEBUILDING - SM OFFICE C END_B - STORY GROUND PSZ-AC DIFFUSER, Design Size Maximum Air Flow Rate [m3/s], 4.63657E-002
 Component Sizing Information, AirLoopHVAC, ZONE SMALLOFFICE WHOLEBUILDING - SM OFFICE A  - STORY GROUND PSZ-AC, Sum of Air Terminal Maximum Heating Flow Rates [m3/s], 1.30361
 Component Sizing Information, AirLoopHVAC, ZONE SMALLOFFICE WHOLEBUILDING - SM OFFICE A  - STORY GROUND PSZ-AC, Sum of Air Terminal Minimum Heating Flow Rates [m3/s], 1.30361
 Component Sizing Information, AirLoopHVAC, ZONE SMALLOFFICE WHOLEBUILDING - SM OFFICE A  - STORY GROUND PSZ-AC, Sum of Air Terminal Maximum Flow Rates [m3/s], 1.30361
 Component Sizing Information, AirLoopHVAC, ZONE SMALLOFFICE WHOLEBUILDING - SM OFFICE A  - STORY GROUND PSZ-AC, Adjusted Heating Design Air Flow Rate [m3/s], 1.30361
 Component Sizing Information, AirLoopHVAC, ZONE SMALLOFFICE WHOLEBUILDING - SM OFFICE A  - STORY GROUND PSZ-AC, Adjusted Cooling Design Air Flow Rate [m3/s], 1.30361
 Component Sizing Information, AirLoopHVAC, ZONE SMALLOFFICE WHOLEBUILDING - SM OFFICE A  - STORY GROUND PSZ-AC, Adjusted Main Design Air Flow Rate [m3/s], 1.30361
 Component Sizing Information, AirLoopHVAC, ZONE SMALLOFFICE WHOLEBUILDING - SM OFFICE A  - STORY GROUND PSZ-AC, User Heating Air Flow Ratio [], 1.00000
 Component Sizing Information, AirLoopHVAC, ZONE SMALLOFFICE WHOLEBUILDING - SM OFFICE A  - STORY GROUND PSZ-AC, Calculated Heating Air Flow Ratio [], 1.00000
 Component Sizing Information, AirLoopHVAC, ZONE SMALLOFFICE WHOLEBUILDING - SM OFFICE A END_A - STORY GROUND PSZ-AC, Sum of Air Terminal Maximum Heating Flow Rates [m3/s], 6.73471E-002
 Component Sizing Information, AirLoopHVAC, ZONE SMALLOFFICE WHOLEBUILDING - SM OFFICE A END_A - STORY GROUND PSZ-AC, Sum of Air Terminal Minimum Heating Flow Rates [m3/s], 6.73471E-002
 Component Sizing Information, AirLoopHVAC, ZONE SMALLOFFICE WHOLEBUILDING - SM OFFICE A END_A - STORY GROUND PSZ-AC, Sum of Air Terminal Maximum Flow Rates [m3/s], 6.73471E-002
 Component Sizing Information, AirLoopHVAC, ZONE SMALLOFFICE WHOLEBUILDING - SM OFFICE A END_A - STORY GROUND PSZ-AC, Adjusted Heating Design Air Flow Rate [m3/s], 6.73471E-002
 Component Sizing Information, AirLoopHVAC, ZONE SMALLOFFICE WHOLEBUILDING - SM OFFICE A END_A - STORY GROUND PSZ-AC, Adjusted Cooling Design Air Flow Rate [m3/s], 6.73471E-002
 Component Sizing Information, AirLoopHVAC, ZONE SMALLOFFICE WHOLEBUILDING - SM OFFICE A END_A - STORY GROUND PSZ-AC, Adjusted Main Design Air Flow Rate [m3/s], 6.73471E-002
 Component Sizing Information, AirLoopHVAC, ZONE SMALLOFFICE WHOLEBUILDING - SM OFFICE A END_A - STORY GROUND PSZ-AC, User Heating Air Flow Ratio [], 1.00000
 Component Sizing Information, AirLoopHVAC, ZONE SMALLOFFICE WHOLEBUILDING - SM OFFICE A END_A - STORY GROUND PSZ-AC, Calculated Heating Air Flow Ratio [], 1.00000
 Component Sizing Information, AirLoopHVAC, ZONE SMALLOFFICE WHOLEBUILDING - SM OFFICE A END_B - STORY GROUND PSZ-AC, Sum of Air Terminal Maximum Heating Flow Rates [m3/s], 5.73898E-002
 Component Sizing Information, AirLoopHVAC, ZONE SMALLOFFICE WHOLEBUILDING - SM OFFICE A END_B - STORY GROUND PSZ-AC, Sum of Air Terminal Minimum Heating Flow Rates [m3/s], 5.73898E-002
 Component Sizing Information, AirLoopHVAC, ZONE SMALLOFFICE WHOLEBUILDING - SM OFFICE A END_B - STORY GROUND PSZ-AC, Sum of Air Terminal Maximum Flow Rates [m3/s], 5.73898E-002
 Component Sizing Information, AirLoopHVAC, ZONE SMALLOFFICE WHOLEBUILDING - SM OFFICE A END_B - STORY GROUND PSZ-AC, Adjusted Heating Design Air Flow Rate [m3/s], 5.73898E-002
 Component Sizing Information, AirLoopHVAC, ZONE SMALLOFFICE WHOLEBUILDING - SM OFFICE A END_B - STORY GROUND PSZ-AC, Adjusted Cooling Design Air Flow Rate [m3/s], 5.73898E-002
 Component Sizing Information, AirLoopHVAC, ZONE SMALLOFFICE WHOLEBUILDING - SM OFFICE A END_B - STORY GROUND PSZ-AC, Adjusted Main Design Air Flow Rate [m3/s], 5.73898E-002
 Component Sizing Information, AirLoopHVAC, ZONE SMALLOFFICE WHOLEBUILDING - SM OFFICE A END_B - STORY GROUND PSZ-AC, User Heating Air Flow Ratio [], 1.00000
 Component Sizing Information, AirLoopHVAC, ZONE SMALLOFFICE WHOLEBUILDING - SM OFFICE A END_B - STORY GROUND PSZ-AC, Calculated Heating Air Flow Ratio [], 1.00000
 Component Sizing Information, AirLoopHVAC, ZONE SMALLOFFICE WHOLEBUILDING - SM OFFICE B  - STORY GROUND PSZ-AC, Sum of Air Terminal Maximum Heating Flow Rates [m3/s], 12.08246
 Component Sizing Information, AirLoopHVAC, ZONE SMALLOFFICE WHOLEBUILDING - SM OFFICE B  - STORY GROUND PSZ-AC, Sum of Air Terminal Minimum Heating Flow Rates [m3/s], 12.08246
 Component Sizing Information, AirLoopHVAC, ZONE SMALLOFFICE WHOLEBUILDING - SM OFFICE B  - STORY GROUND PSZ-AC, Sum of Air Terminal Maximum Flow Rates [m3/s], 12.08246
 Component Sizing Information, AirLoopHVAC, ZONE SMALLOFFICE WHOLEBUILDING - SM OFFICE B  - STORY GROUND PSZ-AC, Adjusted Heating Design Air Flow Rate [m3/s], 12.08246
 Component Sizing Information, AirLoopHVAC, ZONE SMALLOFFICE WHOLEBUILDING - SM OFFICE B  - STORY GROUND PSZ-AC, Adjusted Cooling Design Air Flow Rate [m3/s], 12.08246
 Component Sizing Information, AirLoopHVAC, ZONE SMALLOFFICE WHOLEBUILDING - SM OFFICE B  - STORY GROUND PSZ-AC, Adjusted Main Design Air Flow Rate [m3/s], 12.08246
 Component Sizing Information, AirLoopHVAC, ZONE SMALLOFFICE WHOLEBUILDING - SM OFFICE B  - STORY GROUND PSZ-AC, User Heating Air Flow Ratio [], 1.00000
 Component Sizing Information, AirLoopHVAC, ZONE SMALLOFFICE WHOLEBUILDING - SM OFFICE B  - STORY GROUND PSZ-AC, Calculated Heating Air Flow Ratio [], 1.00000
 Component Sizing Information, AirLoopHVAC, ZONE SMALLOFFICE WHOLEBUILDING - SM OFFICE B END_A - STORY GROUND PSZ-AC, Sum of Air Terminal Maximum Heating Flow Rates [m3/s], 1.04780
 Component Sizing Information, AirLoopHVAC, ZONE SMALLOFFICE WHOLEBUILDING - SM OFFICE B END_A - STORY GROUND PSZ-AC, Sum of Air Terminal Minimum Heating Flow Rates [m3/s], 1.04780
 Component Sizing Information, AirLoopHVAC, ZONE SMALLOFFICE WHOLEBUILDING - SM OFFICE B END_A - STORY GROUND PSZ-AC, Sum of Air Terminal Maximum Flow Rates [m3/s], 1.04780
 Component Sizing Information, AirLoopHVAC, ZONE SMALLOFFICE WHOLEBUILDING - SM OFFICE B END_A - STORY GROUND PSZ-AC, Adjusted Heating Design Air Flow Rate [m3/s], 1.04780
 Component Sizing Information, AirLoopHVAC, ZONE SMALLOFFICE WHOLEBUILDING - SM OFFICE B END_A - STORY GROUND PSZ-AC, Adjusted Cooling Design Air Flow Rate [m3/s], 1.04780
 Component Sizing Information, AirLoopHVAC, ZONE SMALLOFFICE WHOLEBUILDING - SM OFFICE B END_A - STORY GROUND PSZ-AC, Adjusted Main Design Air Flow Rate [m3/s], 1.04780
 Component Sizing Information, AirLoopHVAC, ZONE SMALLOFFICE WHOLEBUILDING - SM OFFICE B END_A - STORY GROUND PSZ-AC, User Heating Air Flow Ratio [], 1.00000
 Component Sizing Information, AirLoopHVAC, ZONE SMALLOFFICE WHOLEBUILDING - SM OFFICE B END_A - STORY GROUND PSZ-AC, Calculated Heating Air Flow Ratio [], 1.00000
 Component Sizing Information, AirLoopHVAC, ZONE SMALLOFFICE WHOLEBUILDING - SM OFFICE B END_B - STORY GROUND PSZ-AC, Sum of Air Terminal Maximum Heating Flow Rates [m3/s], 0.85832
 Component Sizing Information, AirLoopHVAC, ZONE SMALLOFFICE WHOLEBUILDING - SM OFFICE B END_B - STORY GROUND PSZ-AC, Sum of Air Terminal Minimum Heating Flow Rates [m3/s], 0.85832
 Component Sizing Information, AirLoopHVAC, ZONE SMALLOFFICE WHOLEBUILDING - SM OFFICE B END_B - STORY GROUND PSZ-AC, Sum of Air Terminal Maximum Flow Rates [m3/s], 0.85832
 Component Sizing Information, AirLoopHVAC, ZONE SMALLOFFICE WHOLEBUILDING - SM OFFICE B END_B - STORY GROUND PSZ-AC, Adjusted Heating Design Air Flow Rate [m3/s], 0.85832
 Component Sizing Information, AirLoopHVAC, ZONE SMALLOFFICE WHOLEBUILDING - SM OFFICE B END_B - STORY GROUND PSZ-AC, Adjusted Cooling Design Air Flow Rate [m3/s], 0.85832
 Component Sizing Information, AirLoopHVAC, ZONE SMALLOFFICE WHOLEBUILDING - SM OFFICE B END_B - STORY GROUND PSZ-AC, Adjusted Main Design Air Flow Rate [m3/s], 0.85832
 Component Sizing Information, AirLoopHVAC, ZONE SMALLOFFICE WHOLEBUILDING - SM OFFICE B END_B - STORY GROUND PSZ-AC, User Heating Air Flow Ratio [], 1.00000
 Component Sizing Information, AirLoopHVAC, ZONE SMALLOFFICE WHOLEBUILDING - SM OFFICE B END_B - STORY GROUND PSZ-AC, Calculated Heating Air Flow Ratio [], 1.00000
 Component Sizing Information, AirLoopHVAC, ZONE SMALLOFFICE WHOLEBUILDING - SM OFFICE C  - STORY GROUND PSZ-AC, Sum of Air Terminal Maximum Heating Flow Rates [m3/s], 0.85337
 Component Sizing Information, AirLoopHVAC, ZONE SMALLOFFICE WHOLEBUILDING - SM OFFICE C  - STORY GROUND PSZ-AC, Sum of Air Terminal Minimum Heating Flow Rates [m3/s], 0.85337
 Component Sizing Information, AirLoopHVAC, ZONE SMALLOFFICE WHOLEBUILDING - SM OFFICE C  - STORY GROUND PSZ-AC, Sum of Air Terminal Maximum Flow Rates [m3/s], 0.85337
 Component Sizing Information, AirLoopHVAC, ZONE SMALLOFFICE WHOLEBUILDING - SM OFFICE C  - STORY GROUND PSZ-AC, Adjusted Heating Design Air Flow Rate [m3/s], 0.85337
 Component Sizing Information, AirLoopHVAC, ZONE SMALLOFFICE WHOLEBUILDING - SM OFFICE C  - STORY GROUND PSZ-AC, Adjusted Cooling Design Air Flow Rate [m3/s], 0.85337
 Component Sizing Information, AirLoopHVAC, ZONE SMALLOFFICE WHOLEBUILDING - SM OFFICE C  - STORY GROUND PSZ-AC, Adjusted Main Design Air Flow Rate [m3/s], 0.85337
 Component Sizing Information, AirLoopHVAC, ZONE SMALLOFFICE WHOLEBUILDING - SM OFFICE C  - STORY GROUND PSZ-AC, User Heating Air Flow Ratio [], 1.00000
 Component Sizing Information, AirLoopHVAC, ZONE SMALLOFFICE WHOLEBUILDING - SM OFFICE C  - STORY GROUND PSZ-AC, Calculated Heating Air Flow Ratio [], 1.00000
 Component Sizing Information, AirLoopHVAC, ZONE SMALLOFFICE WHOLEBUILDING - SM OFFICE C END_A - STORY GROUND PSZ-AC, Sum of Air Terminal Maximum Heating Flow Rates [m3/s], 5.81028E-002
 Component Sizing Information, AirLoopHVAC, ZONE SMALLOFFICE WHOLEBUILDING - SM OFFICE C END_A - STORY GROUND PSZ-AC, Sum of Air Terminal Minimum Heating Flow Rates [m3/s], 5.81028E-002
 Component Sizing Information, AirLoopHVAC, ZONE SMALLOFFICE WHOLEBUILDING - SM OFFICE C END_A - STORY GROUND PSZ-AC, Sum of Air Terminal Maximum Flow Rates [m3/s], 5.81028E-002
 Component Sizing Information, AirLoopHVAC, ZONE SMALLOFFICE WHOLEBUILDING - SM OFFICE C END_A - STORY GROUND PSZ-AC, Adjusted Heating Design Air Flow Rate [m3/s], 5.81028E-002
 Component Sizing Information, AirLoopHVAC, ZONE SMALLOFFICE WHOLEBUILDING - SM OFFICE C END_A - STORY GROUND PSZ-AC, Adjusted Cooling Design Air Flow Rate [m3/s], 5.81028E-002
 Component Sizing Information, AirLoopHVAC, ZONE SMALLOFFICE WHOLEBUILDING - SM OFFICE C END_A - STORY GROUND PSZ-AC, Adjusted Main Design Air Flow Rate [m3/s], 5.81028E-002
 Component Sizing Information, AirLoopHVAC, ZONE SMALLOFFICE WHOLEBUILDING - SM OFFICE C END_A - STORY GROUND PSZ-AC, User Heating Air Flow Ratio [], 1.00000
 Component Sizing Information, AirLoopHVAC, ZONE SMALLOFFICE WHOLEBUILDING - SM OFFICE C END_A - STORY GROUND PSZ-AC, Calculated Heating Air Flow Ratio [], 1.00000
 Component Sizing Information, AirLoopHVAC, ZONE SMALLOFFICE WHOLEBUILDING - SM OFFICE C END_B - STORY GROUND PSZ-AC, Sum of Air Terminal Maximum Heating Flow Rates [m3/s], 4.63657E-002
 Component Sizing Information, AirLoopHVAC, ZONE SMALLOFFICE WHOLEBUILDING - SM OFFICE C END_B - STORY GROUND PSZ-AC, Sum of Air Terminal Minimum Heating Flow Rates [m3/s], 4.63657E-002
 Component Sizing Information, AirLoopHVAC, ZONE SMALLOFFICE WHOLEBUILDING - SM OFFICE C END_B - STORY GROUND PSZ-AC, Sum of Air Terminal Maximum Flow Rates [m3/s], 4.63657E-002
 Component Sizing Information, AirLoopHVAC, ZONE SMALLOFFICE WHOLEBUILDING - SM OFFICE C END_B - STORY GROUND PSZ-AC, Adjusted Heating Design Air Flow Rate [m3/s], 4.63657E-002
 Component Sizing Information, AirLoopHVAC, ZONE SMALLOFFICE WHOLEBUILDING - SM OFFICE C END_B - STORY GROUND PSZ-AC, Adjusted Cooling Design Air Flow Rate [m3/s], 4.63657E-002
 Component Sizing Information, AirLoopHVAC, ZONE SMALLOFFICE WHOLEBUILDING - SM OFFICE C END_B - STORY GROUND PSZ-AC, Adjusted Main Design Air Flow Rate [m3/s], 4.63657E-002
 Component Sizing Information, AirLoopHVAC, ZONE SMALLOFFICE WHOLEBUILDING - SM OFFICE C END_B - STORY GROUND PSZ-AC, User Heating Air Flow Ratio [], 1.00000
 Component Sizing Information, AirLoopHVAC, ZONE SMALLOFFICE WHOLEBUILDING - SM OFFICE C END_B - STORY GROUND PSZ-AC, Calculated Heating Air Flow Ratio [], 1.00000
 Component Sizing Information, AirLoopHVAC, ZONE SMALLOFFICE WHOLEBUILDING - SM OFFICE A  - STORY GROUND PSZ-AC, Design Supply Air Flow Rate [m3/s], 1.30361
 Component Sizing Information, AirLoopHVAC, ZONE SMALLOFFICE WHOLEBUILDING - SM OFFICE A END_A - STORY GROUND PSZ-AC, Design Supply Air Flow Rate [m3/s], 6.73471E-002
 Component Sizing Information, AirLoopHVAC, ZONE SMALLOFFICE WHOLEBUILDING - SM OFFICE A END_B - STORY GROUND PSZ-AC, Design Supply Air Flow Rate [m3/s], 5.73898E-002
 Component Sizing Information, AirLoopHVAC, ZONE SMALLOFFICE WHOLEBUILDING - SM OFFICE B  - STORY GROUND PSZ-AC, Design Supply Air Flow Rate [m3/s], 12.08246
 Component Sizing Information, AirLoopHVAC, ZONE SMALLOFFICE WHOLEBUILDING - SM OFFICE B END_A - STORY GROUND PSZ-AC, Design Supply Air Flow Rate [m3/s], 1.04780
 Component Sizing Information, AirLoopHVAC, ZONE SMALLOFFICE WHOLEBUILDING - SM OFFICE B END_B - STORY GROUND PSZ-AC, Design Supply Air Flow Rate [m3/s], 0.85832
 Component Sizing Information, AirLoopHVAC, ZONE SMALLOFFICE WHOLEBUILDING - SM OFFICE C  - STORY GROUND PSZ-AC, Design Supply Air Flow Rate [m3/s], 0.85337
 Component Sizing Information, AirLoopHVAC, ZONE SMALLOFFICE WHOLEBUILDING - SM OFFICE C END_A - STORY GROUND PSZ-AC, Design Supply Air Flow Rate [m3/s], 5.81028E-002
 Component Sizing Information, AirLoopHVAC, ZONE SMALLOFFICE WHOLEBUILDING - SM OFFICE C END_B - STORY GROUND PSZ-AC, Design Supply Air Flow Rate [m3/s], 4.63657E-002
!<Controller:MechanicalVentilation>,Name,Availability Schedule Name,Demand Controlled Ventilation {Yes/No},System Outdoor Air Method,Zone Maximum Outdoor Air Fraction,Number of Zones,Zone Name,DSOA Name,DSZAD Name
 Controller:MechanicalVentilation,CONTROLLER MECHANICAL VENTILATION 4,ALWAYS ON DISCRETE,No,ZoneSum,1.00,1,ZONE SMALLOFFICE WHOLEBUILDING - SM OFFICE A  - STORY GROUND,SMALLOFFICE WHOLEBUILDING - SM OFFICE VENTILATION,
 Controller:MechanicalVentilation,CONTROLLER MECHANICAL VENTILATION 9,ALWAYS ON DISCRETE,No,ZoneSum,1.00,1,ZONE SMALLOFFICE WHOLEBUILDING - SM OFFICE A END_A - STORY GROUND,SMALLOFFICE WHOLEBUILDING - SM OFFICE VENTILATION,
 Controller:MechanicalVentilation,CONTROLLER MECHANICAL VENTILATION 8,ALWAYS ON DISCRETE,No,ZoneSum,1.00,1,ZONE SMALLOFFICE WHOLEBUILDING - SM OFFICE A END_B - STORY GROUND,SMALLOFFICE WHOLEBUILDING - SM OFFICE VENTILATION,
 Controller:MechanicalVentilation,CONTROLLER MECHANICAL VENTILATION 5,ALWAYS ON DISCRETE,No,ZoneSum,1.00,1,ZONE SMALLOFFICE WHOLEBUILDING - SM OFFICE B  - STORY GROUND,SMALLOFFICE WHOLEBUILDING - SM OFFICE VENTILATION,
 Controller:MechanicalVentilation,CONTROLLER MECHANICAL VENTILATION 7,ALWAYS ON DISCRETE,No,ZoneSum,1.00,1,ZONE SMALLOFFICE WHOLEBUILDING - SM OFFICE B END_A - STORY GROUND,SMALLOFFICE WHOLEBUILDING - SM OFFICE VENTILATION,
 Controller:MechanicalVentilation,CONTROLLER MECHANICAL VENTILATION 1,ALWAYS ON DISCRETE,No,ZoneSum,1.00,1,ZONE SMALLOFFICE WHOLEBUILDING - SM OFFICE B END_B - STORY GROUND,SMALLOFFICE WHOLEBUILDING - SM OFFICE VENTILATION,
 Controller:MechanicalVentilation,CONTROLLER MECHANICAL VENTILATION 2,ALWAYS ON DISCRETE,No,ZoneSum,1.00,1,ZONE SMALLOFFICE WHOLEBUILDING - SM OFFICE C  - STORY GROUND,SMALLOFFICE WHOLEBUILDING - SM OFFICE VENTILATION,
 Controller:MechanicalVentilation,CONTROLLER MECHANICAL VENTILATION 6,ALWAYS ON DISCRETE,No,ZoneSum,1.00,1,ZONE SMALLOFFICE WHOLEBUILDING - SM OFFICE C END_A - STORY GROUND,SMALLOFFICE WHOLEBUILDING - SM OFFICE VENTILATION,
 Controller:MechanicalVentilation,CONTROLLER MECHANICAL VENTILATION 3,ALWAYS ON DISCRETE,No,ZoneSum,1.00,1,ZONE SMALLOFFICE WHOLEBUILDING - SM OFFICE C END_B - STORY GROUND,SMALLOFFICE WHOLEBUILDING - SM OFFICE VENTILATION,
 Component Sizing Information, Controller:OutdoorAir, ZONE SMALLOFFICE WHOLEBUILDING - SM OFFICE A  - STORY GROUND PSZ-AC OA SYSTEM CONTROLLER, Maximum Outdoor Air Flow Rate [m3/s], 1.30361
 Component Sizing Information, Controller:OutdoorAir, ZONE SMALLOFFICE WHOLEBUILDING - SM OFFICE A  - STORY GROUND PSZ-AC OA SYSTEM CONTROLLER, Minimum Outdoor Air Flow Rate [m3/s], 0.35434
 Component Sizing Information, AirLoopHVAC:UnitarySystem, ZONE SMALLOFFICE WHOLEBUILDING - SM OFFICE A  - STORY GROUND PSZ-AC UNITARY AC, Design Size Supply Air Flow Rate [m3/s], 1.30361
 Component Sizing Information, AirLoopHVAC:UnitarySystem, ZONE SMALLOFFICE WHOLEBUILDING - SM OFFICE A  - STORY GROUND PSZ-AC UNITARY AC, Design Size Heating Supply Air Flow Rate [m3/s], 1.30361
 Component Sizing Information, AirLoopHVAC:UnitarySystem, ZONE SMALLOFFICE WHOLEBUILDING - SM OFFICE A  - STORY GROUND PSZ-AC UNITARY AC, Design Size Cooling Supply Air Flow Rate [m3/s], 1.30361
 Component Sizing Information, AirLoopHVAC:UnitarySystem, ZONE SMALLOFFICE WHOLEBUILDING - SM OFFICE A  - STORY GROUND PSZ-AC UNITARY AC, User-Specified No Load Supply Air Flow Rate [m3/s], 0.00000
 Component Sizing Information, AirLoopHVAC:UnitarySystem, ZONE SMALLOFFICE WHOLEBUILDING - SM OFFICE A  - STORY GROUND PSZ-AC UNITARY AC, Design Size Nominal Cooling Capacity [W], 23306.70847
 Component Sizing Information, AirLoopHVAC:UnitarySystem, ZONE SMALLOFFICE WHOLEBUILDING - SM OFFICE A  - STORY GROUND PSZ-AC UNITARY AC, Design Size Nominal Heating Capacity [W], 53373.11289
 Component Sizing Information, AirLoopHVAC:UnitarySystem, ZONE SMALLOFFICE WHOLEBUILDING - SM OFFICE A  - STORY GROUND PSZ-AC UNITARY AC, Design Size Maximum Supply Air Temperature [C], 50.00000
 Component Sizing Information, AirLoopHVAC:UnitarySystem, ZONE SMALLOFFICE WHOLEBUILDING - SM OFFICE A  - STORY GROUND PSZ-AC UNITARY AC, User-Specified Maximum Supply Air Temperature [C], 80.00000
 Component Sizing Information, AirLoopHVAC:UnitarySystem, ZONE SMALLOFFICE WHOLEBUILDING - SM OFFICE A  - STORY GROUND PSZ-AC UNITARY AC, User-Specified Supplemental Heating Coil Nominal Capacity [W], 53373.11289
 Component Sizing Information, AirLoopHVAC:UnitarySystem, ZONE SMALLOFFICE WHOLEBUILDING - SM OFFICE A  - STORY GROUND PSZ-AC UNITARY AC, Fraction of Supply Air Flow That Goes Through the Controlling Zone, 1.00000
 Component Sizing Information, Coil:Cooling:DX:SingleSpeed, ZONE SMALLOFFICE WHOLEBUILDING - SM OFFICE A  - STORY GROUND PSZ-AC 1SPD DX AC CLG COIL, Design Size Rated Air Flow Rate [m3/s], 1.30361
 Component Sizing Information, Coil:Cooling:DX:SingleSpeed, ZONE SMALLOFFICE WHOLEBUILDING - SM OFFICE A  - STORY GROUND PSZ-AC 1SPD DX AC CLG COIL, Design Size Gross Rated Total Cooling Capacity [W], 23306.70847
 Component Sizing Information, Coil:Cooling:DX:SingleSpeed, ZONE SMALLOFFICE WHOLEBUILDING - SM OFFICE A  - STORY GROUND PSZ-AC 1SPD DX AC CLG COIL, Design Size Gross Rated Sensible Heat Ratio, 0.80041
! <DX Cooling Coil Standard Rating Information>, Component Type, Component Name, Standard Rating (Net) Cooling Capacity {W}, Standard Rated Net COP {W/W}, EER {Btu/W-h}, SEER User {Btu/W-h}, SEER Standard {Btu/W-h}, IEER {Btu/W-h}
 DX Cooling Coil Standard Rating Information, Coil:Cooling:DX:SingleSpeed, ZONE SMALLOFFICE WHOLEBUILDING - SM OFFICE A  - STORY GROUND PSZ-AC 1SPD DX AC CLG COIL, 22296.3, 2.54, 8.67, 9.97, 9.12, 9.57
 Component Sizing Information, Coil:Heating:Fuel, ZONE SMALLOFFICE WHOLEBUILDING - SM OFFICE A  - STORY GROUND PSZ-AC GAS HTG COIL, Design Size Nominal Capacity [W], 53373.11289
 Component Sizing Information, Fan:OnOff, ZONE SMALLOFFICE WHOLEBUILDING - SM OFFICE A  - STORY GROUND PSZ-AC FAN, Design Size Maximum Flow Rate [m3/s], 1.30361
 Component Sizing Information, Coil:Heating:Electric, ZONE SMALLOFFICE WHOLEBUILDING - SM OFFICE A  - STORY GROUND PSZ-AC ELECTRIC BACKUP HTG COIL, Design Size Nominal Capacity [W], 53373.11289
 Component Sizing Information, Controller:OutdoorAir, ZONE SMALLOFFICE WHOLEBUILDING - SM OFFICE A END_A - STORY GROUND PSZ-AC OA SYSTEM CONTROLLER, Maximum Outdoor Air Flow Rate [m3/s], 6.73471E-002
 Component Sizing Information, Controller:OutdoorAir, ZONE SMALLOFFICE WHOLEBUILDING - SM OFFICE A END_A - STORY GROUND PSZ-AC OA SYSTEM CONTROLLER, Minimum Outdoor Air Flow Rate [m3/s], 1.06188E-002
 Component Sizing Information, AirLoopHVAC:UnitarySystem, ZONE SMALLOFFICE WHOLEBUILDING - SM OFFICE A END_A - STORY GROUND PSZ-AC UNITARY AC, Design Size Supply Air Flow Rate [m3/s], 6.73471E-002
 Component Sizing Information, AirLoopHVAC:UnitarySystem, ZONE SMALLOFFICE WHOLEBUILDING - SM OFFICE A END_A - STORY GROUND PSZ-AC UNITARY AC, Design Size Heating Supply Air Flow Rate [m3/s], 6.73471E-002
 Component Sizing Information, AirLoopHVAC:UnitarySystem, ZONE SMALLOFFICE WHOLEBUILDING - SM OFFICE A END_A - STORY GROUND PSZ-AC UNITARY AC, Design Size Cooling Supply Air Flow Rate [m3/s], 6.73471E-002
 Component Sizing Information, AirLoopHVAC:UnitarySystem, ZONE SMALLOFFICE WHOLEBUILDING - SM OFFICE A END_A - STORY GROUND PSZ-AC UNITARY AC, User-Specified No Load Supply Air Flow Rate [m3/s], 0.00000
 Component Sizing Information, AirLoopHVAC:UnitarySystem, ZONE SMALLOFFICE WHOLEBUILDING - SM OFFICE A END_A - STORY GROUND PSZ-AC UNITARY AC, Design Size Nominal Cooling Capacity [W], 1136.63185
 Component Sizing Information, AirLoopHVAC:UnitarySystem, ZONE SMALLOFFICE WHOLEBUILDING - SM OFFICE A END_A - STORY GROUND PSZ-AC UNITARY AC, Design Size Nominal Heating Capacity [W], 2588.05606
 Component Sizing Information, AirLoopHVAC:UnitarySystem, ZONE SMALLOFFICE WHOLEBUILDING - SM OFFICE A END_A - STORY GROUND PSZ-AC UNITARY AC, Design Size Maximum Supply Air Temperature [C], 50.00000
 Component Sizing Information, AirLoopHVAC:UnitarySystem, ZONE SMALLOFFICE WHOLEBUILDING - SM OFFICE A END_A - STORY GROUND PSZ-AC UNITARY AC, User-Specified Maximum Supply Air Temperature [C], 80.00000
 Component Sizing Information, AirLoopHVAC:UnitarySystem, ZONE SMALLOFFICE WHOLEBUILDING - SM OFFICE A END_A - STORY GROUND PSZ-AC UNITARY AC, User-Specified Supplemental Heating Coil Nominal Capacity [W], 2588.05606
 Component Sizing Information, AirLoopHVAC:UnitarySystem, ZONE SMALLOFFICE WHOLEBUILDING - SM OFFICE A END_A - STORY GROUND PSZ-AC UNITARY AC, Fraction of Supply Air Flow That Goes Through the Controlling Zone, 1.00000
 Component Sizing Information, Coil:Cooling:DX:SingleSpeed, ZONE SMALLOFFICE WHOLEBUILDING - SM OFFICE A END_A - STORY GROUND PSZ-AC 1SPD DX AC CLG COIL, Design Size Rated Air Flow Rate [m3/s], 6.73471E-002
 Component Sizing Information, Coil:Cooling:DX:SingleSpeed, ZONE SMALLOFFICE WHOLEBUILDING - SM OFFICE A END_A - STORY GROUND PSZ-AC 1SPD DX AC CLG COIL, Design Size Gross Rated Total Cooling Capacity [W], 1136.63185
 Component Sizing Information, Coil:Cooling:DX:SingleSpeed, ZONE SMALLOFFICE WHOLEBUILDING - SM OFFICE A END_A - STORY GROUND PSZ-AC 1SPD DX AC CLG COIL, Design Size Gross Rated Sensible Heat Ratio, 0.80060
 DX Cooling Coil Standard Rating Information, Coil:Cooling:DX:SingleSpeed, ZONE SMALLOFFICE WHOLEBUILDING - SM OFFICE A END_A - STORY GROUND PSZ-AC 1SPD DX AC CLG COIL, 1084.4, 2.52, 8.59, 9.87, 9.03, 9.42
 Component Sizing Information, Coil:Heating:Fuel, ZONE SMALLOFFICE WHOLEBUILDING - SM OFFICE A END_A - STORY GROUND PSZ-AC GAS HTG COIL, Design Size Nominal Capacity [W], 2588.05606
 Component Sizing Information, Fan:OnOff, ZONE SMALLOFFICE WHOLEBUILDING - SM OFFICE A END_A - STORY GROUND PSZ-AC FAN, Design Size Maximum Flow Rate [m3/s], 6.73471E-002
 Component Sizing Information, Coil:Heating:Electric, ZONE SMALLOFFICE WHOLEBUILDING - SM OFFICE A END_A - STORY GROUND PSZ-AC ELECTRIC BACKUP HTG COIL, Design Size Nominal Capacity [W], 2588.05606
 Component Sizing Information, Controller:OutdoorAir, ZONE SMALLOFFICE WHOLEBUILDING - SM OFFICE A END_B - STORY GROUND PSZ-AC OA SYSTEM CONTROLLER, Maximum Outdoor Air Flow Rate [m3/s], 5.73898E-002
 Component Sizing Information, Controller:OutdoorAir, ZONE SMALLOFFICE WHOLEBUILDING - SM OFFICE A END_B - STORY GROUND PSZ-AC OA SYSTEM CONTROLLER, Minimum Outdoor Air Flow Rate [m3/s], 1.06188E-002
 Component Sizing Information, AirLoopHVAC:UnitarySystem, ZONE SMALLOFFICE WHOLEBUILDING - SM OFFICE A END_B - STORY GROUND PSZ-AC UNITARY AC, Design Size Supply Air Flow Rate [m3/s], 5.73898E-002
 Component Sizing Information, AirLoopHVAC:UnitarySystem, ZONE SMALLOFFICE WHOLEBUILDING - SM OFFICE A END_B - STORY GROUND PSZ-AC UNITARY AC, Design Size Heating Supply Air Flow Rate [m3/s], 5.73898E-002
 Component Sizing Information, AirLoopHVAC:UnitarySystem, ZONE SMALLOFFICE WHOLEBUILDING - SM OFFICE A END_B - STORY GROUND PSZ-AC UNITARY AC, Design Size Cooling Supply Air Flow Rate [m3/s], 5.73898E-002
 Component Sizing Information, AirLoopHVAC:UnitarySystem, ZONE SMALLOFFICE WHOLEBUILDING - SM OFFICE A END_B - STORY GROUND PSZ-AC UNITARY AC, User-Specified No Load Supply Air Flow Rate [m3/s], 0.00000
 Component Sizing Information, AirLoopHVAC:UnitarySystem, ZONE SMALLOFFICE WHOLEBUILDING - SM OFFICE A END_B - STORY GROUND PSZ-AC UNITARY AC, Design Size Nominal Cooling Capacity [W], 962.50002
 Component Sizing Information, AirLoopHVAC:UnitarySystem, ZONE SMALLOFFICE WHOLEBUILDING - SM OFFICE A END_B - STORY GROUND PSZ-AC UNITARY AC, Design Size Nominal Heating Capacity [W], 2239.99831
 Component Sizing Information, AirLoopHVAC:UnitarySystem, ZONE SMALLOFFICE WHOLEBUILDING - SM OFFICE A END_B - STORY GROUND PSZ-AC UNITARY AC, Design Size Maximum Supply Air Temperature [C], 50.00000
 Component Sizing Information, AirLoopHVAC:UnitarySystem, ZONE SMALLOFFICE WHOLEBUILDING - SM OFFICE A END_B - STORY GROUND PSZ-AC UNITARY AC, User-Specified Maximum Supply Air Temperature [C], 80.00000
 Component Sizing Information, AirLoopHVAC:UnitarySystem, ZONE SMALLOFFICE WHOLEBUILDING - SM OFFICE A END_B - STORY GROUND PSZ-AC UNITARY AC, User-Specified Supplemental Heating Coil Nominal Capacity [W], 2239.99831
 Component Sizing Information, AirLoopHVAC:UnitarySystem, ZONE SMALLOFFICE WHOLEBUILDING - SM OFFICE A END_B - STORY GROUND PSZ-AC UNITARY AC, Fraction of Supply Air Flow That Goes Through the Controlling Zone, 1.00000
 Component Sizing Information, Coil:Cooling:DX:SingleSpeed, ZONE SMALLOFFICE WHOLEBUILDING - SM OFFICE A END_B - STORY GROUND PSZ-AC 1SPD DX AC CLG COIL, Design Size Rated Air Flow Rate [m3/s], 5.73898E-002
 Component Sizing Information, Coil:Cooling:DX:SingleSpeed, ZONE SMALLOFFICE WHOLEBUILDING - SM OFFICE A END_B - STORY GROUND PSZ-AC 1SPD DX AC CLG COIL, Design Size Gross Rated Total Cooling Capacity [W], 962.50002
 Component Sizing Information, Coil:Cooling:DX:SingleSpeed, ZONE SMALLOFFICE WHOLEBUILDING - SM OFFICE A END_B - STORY GROUND PSZ-AC 1SPD DX AC CLG COIL, Design Size Gross Rated Sensible Heat Ratio, 0.80088
 DX Cooling Coil Standard Rating Information, Coil:Cooling:DX:SingleSpeed, ZONE SMALLOFFICE WHOLEBUILDING - SM OFFICE A END_B - STORY GROUND PSZ-AC 1SPD DX AC CLG COIL, 918.0, 2.51, 8.58, 9.86, 9.02, 9.40
 Component Sizing Information, Coil:Heating:Fuel, ZONE SMALLOFFICE WHOLEBUILDING - SM OFFICE A END_B - STORY GROUND PSZ-AC GAS HTG COIL, Design Size Nominal Capacity [W], 2239.99831
 Component Sizing Information, Fan:OnOff, ZONE SMALLOFFICE WHOLEBUILDING - SM OFFICE A END_B - STORY GROUND PSZ-AC FAN, Design Size Maximum Flow Rate [m3/s], 5.73898E-002
 Component Sizing Information, Coil:Heating:Electric, ZONE SMALLOFFICE WHOLEBUILDING - SM OFFICE A END_B - STORY GROUND PSZ-AC ELECTRIC BACKUP HTG COIL, Design Size Nominal Capacity [W], 2239.99831
 Component Sizing Information, Controller:OutdoorAir, ZONE SMALLOFFICE WHOLEBUILDING - SM OFFICE B  - STORY GROUND PSZ-AC OA SYSTEM CONTROLLER, Maximum Outdoor Air Flow Rate [m3/s], 12.08246
 Component Sizing Information, Controller:OutdoorAir, ZONE SMALLOFFICE WHOLEBUILDING - SM OFFICE B  - STORY GROUND PSZ-AC OA SYSTEM CONTROLLER, Minimum Outdoor Air Flow Rate [m3/s], 7.64650
 Component Sizing Information, AirLoopHVAC:UnitarySystem, ZONE SMALLOFFICE WHOLEBUILDING - SM OFFICE B  - STORY GROUND PSZ-AC UNITARY AC, Design Size Supply Air Flow Rate [m3/s], 12.08246
 Component Sizing Information, AirLoopHVAC:UnitarySystem, ZONE SMALLOFFICE WHOLEBUILDING - SM OFFICE B  - STORY GROUND PSZ-AC UNITARY AC, Design Size Heating Supply Air Flow Rate [m3/s], 12.08246
 Component Sizing Information, AirLoopHVAC:UnitarySystem, ZONE SMALLOFFICE WHOLEBUILDING - SM OFFICE B  - STORY GROUND PSZ-AC UNITARY AC, Design Size Cooling Supply Air Flow Rate [m3/s], 12.08246
 Component Sizing Information, AirLoopHVAC:UnitarySystem, ZONE SMALLOFFICE WHOLEBUILDING - SM OFFICE B  - STORY GROUND PSZ-AC UNITARY AC, User-Specified No Load Supply Air Flow Rate [m3/s], 0.00000
 Component Sizing Information, AirLoopHVAC:UnitarySystem, ZONE SMALLOFFICE WHOLEBUILDING - SM OFFICE B  - STORY GROUND PSZ-AC UNITARY AC, Design Size Nominal Cooling Capacity [W], 244086.95707
 Component Sizing Information, AirLoopHVAC:UnitarySystem, ZONE SMALLOFFICE WHOLEBUILDING - SM OFFICE B  - STORY GROUND PSZ-AC UNITARY AC, Design Size Nominal Heating Capacity [W], 590786.94910
 Component Sizing Information, AirLoopHVAC:UnitarySystem, ZONE SMALLOFFICE WHOLEBUILDING - SM OFFICE B  - STORY GROUND PSZ-AC UNITARY AC, Design Size Maximum Supply Air Temperature [C], 50.00000
 Component Sizing Information, AirLoopHVAC:UnitarySystem, ZONE SMALLOFFICE WHOLEBUILDING - SM OFFICE B  - STORY GROUND PSZ-AC UNITARY AC, User-Specified Maximum Supply Air Temperature [C], 80.00000
 Component Sizing Information, AirLoopHVAC:UnitarySystem, ZONE SMALLOFFICE WHOLEBUILDING - SM OFFICE B  - STORY GROUND PSZ-AC UNITARY AC, User-Specified Supplemental Heating Coil Nominal Capacity [W], 590786.94910
 Component Sizing Information, AirLoopHVAC:UnitarySystem, ZONE SMALLOFFICE WHOLEBUILDING - SM OFFICE B  - STORY GROUND PSZ-AC UNITARY AC, Fraction of Supply Air Flow That Goes Through the Controlling Zone, 1.00000
 Component Sizing Information, Coil:Cooling:DX:SingleSpeed, ZONE SMALLOFFICE WHOLEBUILDING - SM OFFICE B  - STORY GROUND PSZ-AC 1SPD DX AC CLG COIL, Design Size Rated Air Flow Rate [m3/s], 12.08246
 Component Sizing Information, Coil:Cooling:DX:SingleSpeed, ZONE SMALLOFFICE WHOLEBUILDING - SM OFFICE B  - STORY GROUND PSZ-AC 1SPD DX AC CLG COIL, Design Size Gross Rated Total Cooling Capacity [W], 244086.95707
 Component Sizing Information, Coil:Cooling:DX:SingleSpeed, ZONE SMALLOFFICE WHOLEBUILDING - SM OFFICE B  - STORY GROUND PSZ-AC 1SPD DX AC CLG COIL, Design Size Gross Rated Sensible Heat Ratio, 0.77226
 DX Cooling Coil Standard Rating Information, Coil:Cooling:DX:SingleSpeed, ZONE SMALLOFFICE WHOLEBUILDING - SM OFFICE B  - STORY GROUND PSZ-AC 1SPD DX AC CLG COIL, 234718.9, 2.59, 8.83, 10.18, 9.31, 9.87
 Component Sizing Information, Coil:Heating:Fuel, ZONE SMALLOFFICE WHOLEBUILDING - SM OFFICE B  - STORY GROUND PSZ-AC GAS HTG COIL, Design Size Nominal Capacity [W], 590786.94910
 Component Sizing Information, Fan:OnOff, ZONE SMALLOFFICE WHOLEBUILDING - SM OFFICE B  - STORY GROUND PSZ-AC FAN, Design Size Maximum Flow Rate [m3/s], 12.08246
 Component Sizing Information, Coil:Heating:Electric, ZONE SMALLOFFICE WHOLEBUILDING - SM OFFICE B  - STORY GROUND PSZ-AC ELECTRIC BACKUP HTG COIL, Design Size Nominal Capacity [W], 590786.94910
 Component Sizing Information, Controller:OutdoorAir, ZONE SMALLOFFICE WHOLEBUILDING - SM OFFICE B END_A - STORY GROUND PSZ-AC OA SYSTEM CONTROLLER, Maximum Outdoor Air Flow Rate [m3/s], 1.04780
 Component Sizing Information, Controller:OutdoorAir, ZONE SMALLOFFICE WHOLEBUILDING - SM OFFICE B END_A - STORY GROUND PSZ-AC OA SYSTEM CONTROLLER, Minimum Outdoor Air Flow Rate [m3/s], 0.22915
 Component Sizing Information, AirLoopHVAC:UnitarySystem, ZONE SMALLOFFICE WHOLEBUILDING - SM OFFICE B END_A - STORY GROUND PSZ-AC UNITARY AC, Design Size Supply Air Flow Rate [m3/s], 1.04780
 Component Sizing Information, AirLoopHVAC:UnitarySystem, ZONE SMALLOFFICE WHOLEBUILDING - SM OFFICE B END_A - STORY GROUND PSZ-AC UNITARY AC, Design Size Heating Supply Air Flow Rate [m3/s], 1.04780
 Component Sizing Information, AirLoopHVAC:UnitarySystem, ZONE SMALLOFFICE WHOLEBUILDING - SM OFFICE B END_A - STORY GROUND PSZ-AC UNITARY AC, Design Size Cooling Supply Air Flow Rate [m3/s], 1.04780
 Component Sizing Information, AirLoopHVAC:UnitarySystem, ZONE SMALLOFFICE WHOLEBUILDING - SM OFFICE B END_A - STORY GROUND PSZ-AC UNITARY AC, User-Specified No Load Supply Air Flow Rate [m3/s], 0.00000
 Component Sizing Information, AirLoopHVAC:UnitarySystem, ZONE SMALLOFFICE WHOLEBUILDING - SM OFFICE B END_A - STORY GROUND PSZ-AC UNITARY AC, Design Size Nominal Cooling Capacity [W], 18075.27823
 Component Sizing Information, AirLoopHVAC:UnitarySystem, ZONE SMALLOFFICE WHOLEBUILDING - SM OFFICE B END_A - STORY GROUND PSZ-AC UNITARY AC, Design Size Nominal Heating Capacity [W], 41673.42581
 Component Sizing Information, AirLoopHVAC:UnitarySystem, ZONE SMALLOFFICE WHOLEBUILDING - SM OFFICE B END_A - STORY GROUND PSZ-AC UNITARY AC, Design Size Maximum Supply Air Temperature [C], 50.00000
 Component Sizing Information, AirLoopHVAC:UnitarySystem, ZONE SMALLOFFICE WHOLEBUILDING - SM OFFICE B END_A - STORY GROUND PSZ-AC UNITARY AC, User-Specified Maximum Supply Air Temperature [C], 80.00000
 Component Sizing Information, AirLoopHVAC:UnitarySystem, ZONE SMALLOFFICE WHOLEBUILDING - SM OFFICE B END_A - STORY GROUND PSZ-AC UNITARY AC, User-Specified Supplemental Heating Coil Nominal Capacity [W], 41673.42581
 Component Sizing Information, AirLoopHVAC:UnitarySystem, ZONE SMALLOFFICE WHOLEBUILDING - SM OFFICE B END_A - STORY GROUND PSZ-AC UNITARY AC, Fraction of Supply Air Flow That Goes Through the Controlling Zone, 1.00000
 Component Sizing Information, Coil:Cooling:DX:SingleSpeed, ZONE SMALLOFFICE WHOLEBUILDING - SM OFFICE B END_A - STORY GROUND PSZ-AC 1SPD DX AC CLG COIL, Design Size Rated Air Flow Rate [m3/s], 1.04780
 Component Sizing Information, Coil:Cooling:DX:SingleSpeed, ZONE SMALLOFFICE WHOLEBUILDING - SM OFFICE B END_A - STORY GROUND PSZ-AC 1SPD DX AC CLG COIL, Design Size Gross Rated Total Cooling Capacity [W], 18075.27823
 Component Sizing Information, Coil:Cooling:DX:SingleSpeed, ZONE SMALLOFFICE WHOLEBUILDING - SM OFFICE B END_A - STORY GROUND PSZ-AC 1SPD DX AC CLG COIL, Design Size Gross Rated Sensible Heat Ratio, 0.80080
 DX Cooling Coil Standard Rating Information, Coil:Cooling:DX:SingleSpeed, ZONE SMALLOFFICE WHOLEBUILDING - SM OFFICE B END_A - STORY GROUND PSZ-AC 1SPD DX AC CLG COIL, 17263.2, 2.53, 8.62, 9.91, 9.06, 9.48
 Component Sizing Information, Coil:Heating:Fuel, ZONE SMALLOFFICE WHOLEBUILDING - SM OFFICE B END_A - STORY GROUND PSZ-AC GAS HTG COIL, Design Size Nominal Capacity [W], 41673.42581
 Component Sizing Information, Fan:OnOff, ZONE SMALLOFFICE WHOLEBUILDING - SM OFFICE B END_A - STORY GROUND PSZ-AC FAN, Design Size Maximum Flow Rate [m3/s], 1.04780
 Component Sizing Information, Coil:Heating:Electric, ZONE SMALLOFFICE WHOLEBUILDING - SM OFFICE B END_A - STORY GROUND PSZ-AC ELECTRIC BACKUP HTG COIL, Design Size Nominal Capacity [W], 41673.42581
 Component Sizing Information, Controller:OutdoorAir, ZONE SMALLOFFICE WHOLEBUILDING - SM OFFICE B END_B - STORY GROUND PSZ-AC OA SYSTEM CONTROLLER, Maximum Outdoor Air Flow Rate [m3/s], 0.85832
 Component Sizing Information, Controller:OutdoorAir, ZONE SMALLOFFICE WHOLEBUILDING - SM OFFICE B END_B - STORY GROUND PSZ-AC OA SYSTEM CONTROLLER, Minimum Outdoor Air Flow Rate [m3/s], 0.22915
 Component Sizing Information, AirLoopHVAC:UnitarySystem, ZONE SMALLOFFICE WHOLEBUILDING - SM OFFICE B END_B - STORY GROUND PSZ-AC UNITARY AC, Design Size Supply Air Flow Rate [m3/s], 0.85832
 Component Sizing Information, AirLoopHVAC:UnitarySystem, ZONE SMALLOFFICE WHOLEBUILDING - SM OFFICE B END_B - STORY GROUND PSZ-AC UNITARY AC, Design Size Heating Supply Air Flow Rate [m3/s], 0.85832
 Component Sizing Information, AirLoopHVAC:UnitarySystem, ZONE SMALLOFFICE WHOLEBUILDING - SM OFFICE B END_B - STORY GROUND PSZ-AC UNITARY AC, Design Size Cooling Supply Air Flow Rate [m3/s], 0.85832
 Component Sizing Information, AirLoopHVAC:UnitarySystem, ZONE SMALLOFFICE WHOLEBUILDING - SM OFFICE B END_B - STORY GROUND PSZ-AC UNITARY AC, User-Specified No Load Supply Air Flow Rate [m3/s], 0.00000
 Component Sizing Information, AirLoopHVAC:UnitarySystem, ZONE SMALLOFFICE WHOLEBUILDING - SM OFFICE B END_B - STORY GROUND PSZ-AC UNITARY AC, Design Size Nominal Cooling Capacity [W], 14490.24226
 Component Sizing Information, AirLoopHVAC:UnitarySystem, ZONE SMALLOFFICE WHOLEBUILDING - SM OFFICE B END_B - STORY GROUND PSZ-AC UNITARY AC, Design Size Nominal Heating Capacity [W], 35050.23754
 Component Sizing Information, AirLoopHVAC:UnitarySystem, ZONE SMALLOFFICE WHOLEBUILDING - SM OFFICE B END_B - STORY GROUND PSZ-AC UNITARY AC, Design Size Maximum Supply Air Temperature [C], 50.00000
 Component Sizing Information, AirLoopHVAC:UnitarySystem, ZONE SMALLOFFICE WHOLEBUILDING - SM OFFICE B END_B - STORY GROUND PSZ-AC UNITARY AC, User-Specified Maximum Supply Air Temperature [C], 80.00000
 Component Sizing Information, AirLoopHVAC:UnitarySystem, ZONE SMALLOFFICE WHOLEBUILDING - SM OFFICE B END_B - STORY GROUND PSZ-AC UNITARY AC, User-Specified Supplemental Heating Coil Nominal Capacity [W], 35050.23754
 Component Sizing Information, AirLoopHVAC:UnitarySystem, ZONE SMALLOFFICE WHOLEBUILDING - SM OFFICE B END_B - STORY GROUND PSZ-AC UNITARY AC, Fraction of Supply Air Flow That Goes Through the Controlling Zone, 1.00000
 Component Sizing Information, Coil:Cooling:DX:SingleSpeed, ZONE SMALLOFFICE WHOLEBUILDING - SM OFFICE B END_B - STORY GROUND PSZ-AC 1SPD DX AC CLG COIL, Design Size Rated Air Flow Rate [m3/s], 0.85832
 Component Sizing Information, Coil:Cooling:DX:SingleSpeed, ZONE SMALLOFFICE WHOLEBUILDING - SM OFFICE B END_B - STORY GROUND PSZ-AC 1SPD DX AC CLG COIL, Design Size Gross Rated Total Cooling Capacity [W], 14490.24226
 Component Sizing Information, Coil:Cooling:DX:SingleSpeed, ZONE SMALLOFFICE WHOLEBUILDING - SM OFFICE B END_B - STORY GROUND PSZ-AC 1SPD DX AC CLG COIL, Design Size Gross Rated Sensible Heat Ratio, 0.80050
 DX Cooling Coil Standard Rating Information, Coil:Cooling:DX:SingleSpeed, ZONE SMALLOFFICE WHOLEBUILDING - SM OFFICE B END_B - STORY GROUND PSZ-AC 1SPD DX AC CLG COIL, 13825.0, 2.52, 8.59, 9.87, 9.03, 9.42
 Component Sizing Information, Coil:Heating:Fuel, ZONE SMALLOFFICE WHOLEBUILDING - SM OFFICE B END_B - STORY GROUND PSZ-AC GAS HTG COIL, Design Size Nominal Capacity [W], 35050.23754
 Component Sizing Information, Fan:OnOff, ZONE SMALLOFFICE WHOLEBUILDING - SM OFFICE B END_B - STORY GROUND PSZ-AC FAN, Design Size Maximum Flow Rate [m3/s], 0.85832
 Component Sizing Information, Coil:Heating:Electric, ZONE SMALLOFFICE WHOLEBUILDING - SM OFFICE B END_B - STORY GROUND PSZ-AC ELECTRIC BACKUP HTG COIL, Design Size Nominal Capacity [W], 35050.23754
 Component Sizing Information, Controller:OutdoorAir, ZONE SMALLOFFICE WHOLEBUILDING - SM OFFICE C  - STORY GROUND PSZ-AC OA SYSTEM CONTROLLER, Maximum Outdoor Air Flow Rate [m3/s], 0.85337
 Component Sizing Information, Controller:OutdoorAir, ZONE SMALLOFFICE WHOLEBUILDING - SM OFFICE C  - STORY GROUND PSZ-AC OA SYSTEM CONTROLLER, Minimum Outdoor Air Flow Rate [m3/s], 0.35434
 Component Sizing Information, AirLoopHVAC:UnitarySystem, ZONE SMALLOFFICE WHOLEBUILDING - SM OFFICE C  - STORY GROUND PSZ-AC UNITARY AC, Design Size Supply Air Flow Rate [m3/s], 0.85337
 Component Sizing Information, AirLoopHVAC:UnitarySystem, ZONE SMALLOFFICE WHOLEBUILDING - SM OFFICE C  - STORY GROUND PSZ-AC UNITARY AC, Design Size Heating Supply Air Flow Rate [m3/s], 0.85337
[...]
 Warmup Convergence Information,ZONE SMALLOFFICE WHOLEBUILDING - SM OFFICE A END_B - STORY GROUND,SizingPeriod: CLIMATE ZONE 3 ANN CLG .4% CONDNS DB=>MWB HVAC Sizing Pass 1,2.3619404690E-005,9.3981145960E-005,Pass,Pass,2.4969955386E-002,2.6982944801E-002,Pass,Pass
 Warmup Convergence Information,ZONE SMALLOFFICE WHOLEBUILDING - SM OFFICE B  - STORY GROUND,SizingPeriod: CLIMATE ZONE 3 ANN CLG .4% CONDNS DB=>MWB HVAC Sizing Pass 1,1.2462955743E-005,5.8440332796E-005,Pass,Pass,8.5366443822E-003,7.0165227132E-003,Pass,Pass
 Warmup Convergence Information,ZONE SMALLOFFICE WHOLEBUILDING - SM OFFICE B END_A - STORY GROUND,SizingPeriod: CLIMATE ZONE 3 ANN CLG .4% CONDNS DB=>MWB HVAC Sizing Pass 1,2.0949327890E-005,8.4079493613E-005,Pass,Pass,2.2745640797E-002,2.4877156910E-002,Pass,Pass
 Warmup Convergence Information,ZONE SMALLOFFICE WHOLEBUILDING - SM OFFICE B END_B - STORY GROUND,SizingPeriod: CLIMATE ZONE 3 ANN CLG .4% CONDNS DB=>MWB HVAC Sizing Pass 1,1.9987076967E-005,8.3786421793E-005,Pass,Pass,1.9971329086E-002,2.6047502766E-002,Pass,Pass
 Warmup Convergence Information,ZONE SMALLOFFICE WHOLEBUILDING - SM OFFICE C  - STORY GROUND,SizingPeriod: CLIMATE ZONE 3 ANN CLG .4% CONDNS DB=>MWB HVAC Sizing Pass 1,1.4302076820E-005,6.4770727296E-005,Pass,Pass,1.7671122386E-002,1.3826445709E-002,Pass,Pass
 Warmup Convergence Information,ZONE SMALLOFFICE WHOLEBUILDING - SM OFFICE C END_A - STORY GROUND,SizingPeriod: CLIMATE ZONE 3 ANN CLG .4% CONDNS DB=>MWB HVAC Sizing Pass 1,2.1225767039E-005,8.4378072536E-005,Pass,Pass,2.8320951238E-002,2.4392592412E-002,Pass,Pass
 Warmup Convergence Information,ZONE SMALLOFFICE WHOLEBUILDING - SM OFFICE C END_B - STORY GROUND,SizingPeriod: CLIMATE ZONE 3 ANN CLG .4% CONDNS DB=>MWB HVAC Sizing Pass 1,2.0276697400E-005,8.3354925872E-005,Pass,Pass,2.5337118894E-002,3.1259121646E-002,Pass,Pass
Environment,CLIMATE ZONE 3 ANN CLG .4% CONDNS WB=>MDB HVAC Sizing Pass 1,SizingPeriod:DesignDay,08/21,08/21,SummerDesignDay,1,N/A,N/A,N/A,N/A,N/A,N/A,Clark and Allen
Environment:Daylight Saving,No,SizingPeriod:DesignDay
Environment:Design Day Data,25.50,7.40,DefaultMultipliers,Wetbulb,19.80,{C},101301,290,4.9,0.00,No,No
Environment:Design Day Misc,233,1106.3,0.2000,0.1216,1.0,-3.33,12.4,ASHRAETau
Environment:WarmupDays,  3
 Warmup Convergence Information,ZONE SMALLOFFICE WHOLEBUILDING - SM OFFICE A  - STORY GROUND,SizingPeriod: CLIMATE ZONE 3 ANN CLG .4% CONDNS WB=>MDB HVAC Sizing Pass 1,2.1693708697E-005,1.0119792964E-004,Pass,Pass,2.3987887720E-002,1.5885581032E-002,Pass,Pass
 Warmup Convergence Information,ZONE SMALLOFFICE WHOLEBUILDING - SM OFFICE A END_A - STORY GROUND,SizingPeriod: CLIMATE ZONE 3 ANN CLG .4% CONDNS WB=>MDB HVAC Sizing Pass 1,3.0074725244E-005,1.2595525873E-004,Pass,Pass,3.5203104692E-002,2.6101530936E-002,Pass,Pass
 Warmup Convergence Information,ZONE SMALLOFFICE WHOLEBUILDING - SM OFFICE A END_B - STORY GROUND,SizingPeriod: CLIMATE ZONE 3 ANN CLG .4% CONDNS WB=>MDB HVAC Sizing Pass 1,2.5557830249E-005,1.1370370879E-004,Pass,Pass,3.3399825035E-002,3.6437002348E-002,Pass,Pass
 Warmup Convergence Information,ZONE SMALLOFFICE WHOLEBUILDING - SM OFFICE B  - STORY GROUND,SizingPeriod: CLIMATE ZONE 3 ANN CLG .4% CONDNS WB=>MDB HVAC Sizing Pass 1,1.3911397922E-005,6.4070230980E-005,Pass,Pass,8.9978712897E-003,7.3658716164E-003,Pass,Pass
 Warmup Convergence Information,ZONE SMALLOFFICE WHOLEBUILDING - SM OFFICE B END_A - STORY GROUND,SizingPeriod: CLIMATE ZONE 3 ANN CLG .4% CONDNS WB=>MDB HVAC Sizing Pass 1,2.5791815806E-005,1.1112992311E-004,Pass,Pass,2.6190651642E-002,2.7239630582E-002,Pass,Pass
 Warmup Convergence Information,ZONE SMALLOFFICE WHOLEBUILDING - SM OFFICE B END_B - STORY GROUND,SizingPeriod: CLIMATE ZONE 3 ANN CLG .4% CONDNS WB=>MDB HVAC Sizing Pass 1,2.1171401628E-005,9.6596282231E-005,Pass,Pass,2.3099396244E-002,3.0133137456E-002,Pass,Pass
 Warmup Convergence Information,ZONE SMALLOFFICE WHOLEBUILDING - SM OFFICE C  - STORY GROUND,SizingPeriod: CLIMATE ZONE 3 ANN CLG .4% CONDNS WB=>MDB HVAC Sizing Pass 1,1.6591906445E-005,7.8006956451E-005,Pass,Pass,2.2173369606E-002,1.7307953117E-002,Pass,Pass
 Warmup Convergence Information,ZONE SMALLOFFICE WHOLEBUILDING - SM OFFICE C END_A - STORY GROUND,SizingPeriod: CLIMATE ZONE 3 ANN CLG .4% CONDNS WB=>MDB HVAC Sizing Pass 1,2.4418063794E-005,1.0961962146E-004,Pass,Pass,3.9880851270E-002,3.1630781391E-002,Pass,Pass
 Warmup Convergence Information,ZONE SMALLOFFICE WHOLEBUILDING - SM OFFICE C END_B - STORY GROUND,SizingPeriod: CLIMATE ZONE 3 ANN CLG .4% CONDNS WB=>MDB HVAC Sizing Pass 1,3.8440132263E-005,1.4769734268E-004,Pass,Pass,3.7322345091E-002,4.4423267257E-002,Pass,Pass
Environment,CLIMATE ZONE 3 ANN HTG 99.6% CONDNS DB HVAC Sizing Pass 1,SizingPeriod:DesignDay,01/21,01/21,WinterDesignDay,1,N/A,N/A,N/A,N/A,N/A,N/A,Clark and Allen
Environment:Daylight Saving,No,SizingPeriod:DesignDay
Environment:Design Day Data,2.90,0.00,DefaultMultipliers,Wetbulb,2.90,{C},101301,50,2.2,0.00,No,No
Environment:Design Day Misc, 21,1229.0,0.1415,5.7310E-002,1.0,-11.15,-20.1,ASHRAEClearSky
Environment:WarmupDays,  3
 Warmup Convergence Information,ZONE SMALLOFFICE WHOLEBUILDING - SM OFFICE A  - STORY GROUND,SizingPeriod: CLIMATE ZONE 3 ANN HTG 99.6% CONDNS DB HVAC Sizing Pass 1,2.3931474086E-015,2.1687184400E-015,Pass,Pass,4.5726510233E-006,1.5194899311E-006,Pass,Pass
 Warmup Convergence Information,ZONE SMALLOFFICE WHOLEBUILDING - SM OFFICE A END_A - STORY GROUND,SizingPeriod: CLIMATE ZONE 3 ANN HTG 99.6% CONDNS DB HVAC Sizing Pass 1,1.9490581988E-015,1.8644631152E-015,Pass,Pass,6.3238884214E-006,2.0971506168E-006,Pass,Pass
 Warmup Convergence Information,ZONE SMALLOFFICE WHOLEBUILDING - SM OFFICE A END_B - STORY GROUND,SizingPeriod: CLIMATE ZONE 3 ANN HTG 99.6% CONDNS DB HVAC Sizing Pass 1,2.7878933729E-015,2.5524102426E-015,Pass,Pass,6.7840411077E-006,2.2123415555E-006,Pass,Pass
 Warmup Convergence Information,ZONE SMALLOFFICE WHOLEBUILDING - SM OFFICE B  - STORY GROUND,SizingPeriod: CLIMATE ZONE 3 ANN HTG 99.6% CONDNS DB HVAC Sizing Pass 1,2.4918338997E-015,2.3341754371E-015,Pass,Pass,1.7122032852E-007,5.5937251535E-008,Pass,Pass
 Warmup Convergence Information,ZONE SMALLOFFICE WHOLEBUILDING - SM OFFICE B END_A - STORY GROUND,SizingPeriod: CLIMATE ZONE 3 ANN HTG 99.6% CONDNS DB HVAC Sizing Pass 1,2.9112514868E-015,2.5691678014E-015,Pass,Pass,4.5790799031E-006,1.5215284924E-006,Pass,Pass
 Warmup Convergence Information,ZONE SMALLOFFICE WHOLEBUILDING - SM OFFICE B END_B - STORY GROUND,SizingPeriod: CLIMATE ZONE 3 ANN HTG 99.6% CONDNS DB HVAC Sizing Pass 1,2.3931474086E-015,2.1687184400E-015,Pass,Pass,5.2438948631E-006,1.6884701648E-006,Pass,Pass
 Warmup Convergence Information,ZONE SMALLOFFICE WHOLEBUILDING - SM OFFICE C  - STORY GROUND,SizingPeriod: CLIMATE ZONE 3 ANN HTG 99.6% CONDNS DB HVAC Sizing Pass 1,2.1957744265E-015,2.1754440334E-015,Pass,Pass,5.2383129987E-006,1.6866493675E-006,Pass,Pass
 Warmup Convergence Information,ZONE SMALLOFFICE WHOLEBUILDING - SM OFFICE C END_A - STORY GROUND,SizingPeriod: CLIMATE ZONE 3 ANN HTG 99.6% CONDNS DB HVAC Sizing Pass 1,2.1464311809E-015,2.3765573743E-015,Pass,Pass,6.7841429989E-006,2.2123675181E-006,Pass,Pass
 Warmup Convergence Information,ZONE SMALLOFFICE WHOLEBUILDING - SM OFFICE C END_B - STORY GROUND,SizingPeriod: CLIMATE ZONE 3 ANN HTG 99.6% CONDNS DB HVAC Sizing Pass 1,2.6151920136E-015,2.5805149356E-015,Pass,Pass,7.2448044718E-006,2.3276753204E-006,Pass,Pass
Environment,CLIMATE ZONE 3 ANN CLG .4% CONDNS DB=>MWB,SizingPeriod:DesignDay,08/21,08/21,SummerDesignDay,1,N/A,N/A,N/A,N/A,N/A,N/A,Clark and Allen
Environment:Daylight Saving,No,SizingPeriod:DesignDay
Environment:Design Day Data,27.70,7.40,DefaultMultipliers,Wetbulb,18.30,{C},101301,290,4.9,0.00,No,No
Environment:Design Day Misc,233,1106.3,0.2000,0.1216,1.0,-3.33,12.4,ASHRAETau
 Component Sizing Information, PlantLoop, HOT WATER LOOP, Maximum Loop Flow Rate [m3/s], 0.00000
 Component Sizing Information, PlantLoop, HOT WATER LOOP, Plant Loop Volume [m3], 0.00000
 Component Sizing Information, PlantLoop, OFFICE SHARED SERVICE WATER LOOP, Maximum Loop Flow Rate [m3/s], 1.07585E-004
 Component Sizing Information, PlantLoop, OFFICE SHARED SERVICE WATER LOOP, Plant Loop Volume [m3], 1.29102E-002
 Component Sizing Information, Boiler:HotWater, BOILER, Design Size Nominal Capacity [W], 0.00000
 Component Sizing Information, Boiler:HotWater, BOILER, Design Size Design Water Flow Rate [m3/s], 0.00000
 Component Sizing Information, Pump:VariableSpeed, HOT WATER LOOP PUMP, Design Flow Rate [m3/s], 0.00000
 Component Sizing Information, Pump:VariableSpeed, HOT WATER LOOP PUMP, Design Power Consumption [W], 0.00000
 Component Sizing Information, WaterHeater:Mixed, 107GAL NATURALGAS WATER HEATER - 107KBTU/HR, Use Side Design Flow Rate [m3/s], 1.07585E-004
 Component Sizing Information, Pump:ConstantSpeed, OFFICE SHARED SERVICE WATER LOOP CIRCULATOR PUMP, Design Flow Rate [m3/s], 1.07585E-004
 Component Sizing Information, Pump:ConstantSpeed, OFFICE SHARED SERVICE WATER LOOP CIRCULATOR PUMP, Design Power Consumption [W], 13.74272
Environment,CLIMATE ZONE 3 ANN CLG .4% CONDNS WB=>MDB,SizingPeriod:DesignDay,08/21,08/21,SummerDesignDay,1,N/A,N/A,N/A,N/A,N/A,N/A,Clark and Allen
Environment:Daylight Saving,No,SizingPeriod:DesignDay
Environment:Design Day Data,25.50,7.40,DefaultMultipliers,Wetbulb,19.80,{C},101301,290,4.9,0.00,No,No
Environment:Design Day Misc,233,1106.3,0.2000,0.1216,1.0,-3.33,12.4,ASHRAETau
Environment,CLIMATE ZONE 3 ANN HTG 99.6% CONDNS DB,SizingPeriod:DesignDay,01/21,01/21,WinterDesignDay,1,N/A,N/A,N/A,N/A,N/A,N/A,Clark and Allen
Environment:Daylight Saving,No,SizingPeriod:DesignDay
Environment:Design Day Data,2.90,0.00,DefaultMultipliers,Wetbulb,2.90,{C},101301,50,2.2,0.00,No,No
Environment:Design Day Misc, 21,1229.0,0.1415,5.7310E-002,1.0,-11.15,-20.1,ASHRAEClearSky
Environment,CLIMATE ZONE 3 ANN CLG .4% CONDNS DB=>MWB HVAC Sizing Pass 1,SizingPeriod:DesignDay,08/21,08/21,SummerDesignDay,1,N/A,N/A,N/A,N/A,N/A,N/A,Clark and Allen
Environment:Daylight Saving,No,SizingPeriod:DesignDay
Environment:Design Day Data,27.70,7.40,DefaultMultipliers,Wetbulb,18.30,{C},101301,290,4.9,0.00,No,No
Environment:Design Day Misc,233,1106.3,0.2000,0.1216,1.0,-3.33,12.4,ASHRAETau
Environment,CLIMATE ZONE 3 ANN CLG .4% CONDNS WB=>MDB HVAC Sizing Pass 1,SizingPeriod:DesignDay,08/21,08/21,SummerDesignDay,1,N/A,N/A,N/A,N/A,N/A,N/A,Clark and Allen
Environment:Daylight Saving,No,SizingPeriod:DesignDay
Environment:Design Day Data,25.50,7.40,DefaultMultipliers,Wetbulb,19.80,{C},101301,290,4.9,0.00,No,No
Environment:Design Day Misc,233,1106.3,0.2000,0.1216,1.0,-3.33,12.4,ASHRAETau
Environment,CLIMATE ZONE 3 ANN HTG 99.6% CONDNS DB HVAC Sizing Pass 1,SizingPeriod:DesignDay,01/21,01/21,WinterDesignDay,1,N/A,N/A,N/A,N/A,N/A,N/A,Clark and Allen
Environment:Daylight Saving,No,SizingPeriod:DesignDay
Environment:Design Day Data,2.90,0.00,DefaultMultipliers,Wetbulb,2.90,{C},101301,50,2.2,0.00,No,No
Environment:Design Day Misc, 21,1229.0,0.1415,5.7310E-002,1.0,-11.15,-20.1,ASHRAEClearSky
Environment,CLIMATE ZONE 3 ANN CLG .4% CONDNS DB=>MWB,SizingPeriod:DesignDay,08/21,08/21,SummerDesignDay,1,N/A,N/A,N/A,N/A,N/A,N/A,Clark and Allen
Environment:Daylight Saving,No,SizingPeriod:DesignDay
Environment:Design Day Data,27.70,7.40,DefaultMultipliers,Wetbulb,18.30,{C},101301,290,4.9,0.00,No,No
Environment:Design Day Misc,233,1106.3,0.2000,0.1216,1.0,-3.33,12.4,ASHRAETau
Environment:WarmupDays,  3
 Warmup Convergence Information,ZONE SMALLOFFICE WHOLEBUILDING - SM OFFICE A  - STORY GROUND,SizingPeriod: CLIMATE ZONE 3 ANN CLG .4% CONDNS DB=>MWB,1.9417767768E-005,8.2365292204E-005,Pass,Pass,2.0399851853E-002,1.4352668431E-002,Pass,Pass
 Warmup Convergence Information,ZONE SMALLOFFICE WHOLEBUILDING - SM OFFICE A END_A - STORY GROUND,SizingPeriod: CLIMATE ZONE 3 ANN CLG .4% CONDNS DB=>MWB,2.3995513944E-005,9.3064238781E-005,Pass,Pass,2.6904581774E-002,2.2091930732E-002,Pass,Pass
 Warmup Convergence Information,ZONE SMALLOFFICE WHOLEBUILDING - SM OFFICE A END_B - STORY GROUND,SizingPeriod: CLIMATE ZONE 3 ANN CLG .4% CONDNS DB=>MWB,2.3619404690E-005,9.3981145960E-005,Pass,Pass,2.4969955386E-002,2.6982944801E-002,Pass,Pass
 Warmup Convergence Information,ZONE SMALLOFFICE WHOLEBUILDING - SM OFFICE B  - STORY GROUND,SizingPeriod: CLIMATE ZONE 3 ANN CLG .4% CONDNS DB=>MWB,1.2462955743E-005,5.8440332796E-005,Pass,Pass,8.5366443822E-003,7.0165227132E-003,Pass,Pass
 Warmup Convergence Information,ZONE SMALLOFFICE WHOLEBUILDING - SM OFFICE B END_A - STORY GROUND,SizingPeriod: CLIMATE ZONE 3 ANN CLG .4% CONDNS DB=>MWB,2.0949327890E-005,8.4079493613E-005,Pass,Pass,2.2745640797E-002,2.4877156910E-002,Pass,Pass
 Warmup Convergence Information,ZONE SMALLOFFICE WHOLEBUILDING - SM OFFICE B END_B - STORY GROUND,SizingPeriod: CLIMATE ZONE 3 ANN CLG .4% CONDNS DB=>MWB,1.9987076967E-005,8.3786421793E-005,Pass,Pass,1.9971329086E-002,2.6047502766E-002,Pass,Pass
 Warmup Convergence Information,ZONE SMALLOFFICE WHOLEBUILDING - SM OFFICE C  - STORY GROUND,SizingPeriod: CLIMATE ZONE 3 ANN CLG .4% CONDNS DB=>MWB,1.4302076820E-005,6.4770727296E-005,Pass,Pass,1.7671122386E-002,1.3826445709E-002,Pass,Pass
 Warmup Convergence Information,ZONE SMALLOFFICE WHOLEBUILDING - SM OFFICE C END_A - STORY GROUND,SizingPeriod: CLIMATE ZONE 3 ANN CLG .4% CONDNS DB=>MWB,2.1225767039E-005,8.4378072536E-005,Pass,Pass,2.8320951238E-002,2.4392592412E-002,Pass,Pass
 Warmup Convergence Information,ZONE SMALLOFFICE WHOLEBUILDING - SM OFFICE C END_B - STORY GROUND,SizingPeriod: CLIMATE ZONE 3 ANN CLG .4% CONDNS DB=>MWB,2.0276697400E-005,8.3354925872E-005,Pass,Pass,2.5337118894E-002,3.1259121646E-002,Pass,Pass
Environment,CLIMATE ZONE 3 ANN CLG .4% CONDNS WB=>MDB,SizingPeriod:DesignDay,08/21,08/21,SummerDesignDay,1,N/A,N/A,N/A,N/A,N/A,N/A,Clark and Allen
Environment:Daylight Saving,No,SizingPeriod:DesignDay
Environment:Design Day Data,25.50,7.40,DefaultMultipliers,Wetbulb,19.80,{C},101301,290,4.9,0.00,No,No
Environment:Design Day Misc,233,1106.3,0.2000,0.1216,1.0,-3.33,12.4,ASHRAETau
Environment:WarmupDays,  3
 Warmup Convergence Information,ZONE SMALLOFFICE WHOLEBUILDING - SM OFFICE A  - STORY GROUND,SizingPeriod: CLIMATE ZONE 3 ANN CLG .4% CONDNS WB=>MDB,2.1693708697E-005,1.0119792964E-004,Pass,Pass,2.3987887720E-002,1.5885581032E-002,Pass,Pass
 Warmup Convergence Information,ZONE SMALLOFFICE WHOLEBUILDING - SM OFFICE A END_A - STORY GROUND,SizingPeriod: CLIMATE ZONE 3 ANN CLG .4% CONDNS WB=>MDB,3.0074725244E-005,1.2595525873E-004,Pass,Pass,3.5203104692E-002,2.6101530936E-002,Pass,Pass
 Warmup Convergence Information,ZONE SMALLOFFICE WHOLEBUILDING - SM OFFICE A END_B - STORY GROUND,SizingPeriod: CLIMATE ZONE 3 ANN CLG .4% CONDNS WB=>MDB,2.5557830249E-005,1.1370370879E-004,Pass,Pass,3.3399825035E-002,3.6437002348E-002,Pass,Pass
 Warmup Convergence Information,ZONE SMALLOFFICE WHOLEBUILDING - SM OFFICE B  - STORY GROUND,SizingPeriod: CLIMATE ZONE 3 ANN CLG .4% CONDNS WB=>MDB,1.3911397922E-005,6.4070230980E-005,Pass,Pass,8.9978712897E-003,7.3658716164E-003,Pass,Pass
 Warmup Convergence Information,ZONE SMALLOFFICE WHOLEBUILDING - SM OFFICE B END_A - STORY GROUND,SizingPeriod: CLIMATE ZONE 3 ANN CLG .4% CONDNS WB=>MDB,2.5791815806E-005,1.1112992311E-004,Pass,Pass,2.6190651642E-002,2.7239630582E-002,Pass,Pass
 Warmup Convergence Information,ZONE SMALLOFFICE WHOLEBUILDING - SM OFFICE B END_B - STORY GROUND,SizingPeriod: CLIMATE ZONE 3 ANN CLG .4% CONDNS WB=>MDB,2.1171401628E-005,9.6596282231E-005,Pass,Pass,2.3099396244E-002,3.0133137456E-002,Pass,Pass
 Warmup Convergence Information,ZONE SMALLOFFICE WHOLEBUILDING - SM OFFICE C  - STORY GROUND,SizingPeriod: CLIMATE ZONE 3 ANN CLG .4% CONDNS WB=>MDB,1.6591906445E-005,7.8006956451E-005,Pass,Pass,2.2173369606E-002,1.7307953117E-002,Pass,Pass
 Warmup Convergence Information,ZONE SMALLOFFICE WHOLEBUILDING - SM OFFICE C END_A - STORY GROUND,SizingPeriod: CLIMATE ZONE 3 ANN CLG .4% CONDNS WB=>MDB,2.4418063794E-005,1.0961962146E-004,Pass,Pass,3.9880851270E-002,3.1630781391E-002,Pass,Pass
 Warmup Convergence Information,ZONE SMALLOFFICE WHOLEBUILDING - SM OFFICE C END_B - STORY GROUND,SizingPeriod: CLIMATE ZONE 3 ANN CLG .4% CONDNS WB=>MDB,3.8440132263E-005,1.4769734268E-004,Pass,Pass,3.7322345091E-002,4.4423267257E-002,Pass,Pass
Environment,CLIMATE ZONE 3 ANN HTG 99.6% CONDNS DB,SizingPeriod:DesignDay,01/21,01/21,WinterDesignDay,1,N/A,N/A,N/A,N/A,N/A,N/A,Clark and Allen
Environment:Daylight Saving,No,SizingPeriod:DesignDay
Environment:Design Day Data,2.90,0.00,DefaultMultipliers,Wetbulb,2.90,{C},101301,50,2.2,0.00,No,No
Environment:Design Day Misc, 21,1229.0,0.1415,5.7310E-002,1.0,-11.15,-20.1,ASHRAEClearSky
Environment:WarmupDays,  3
 Warmup Convergence Information,ZONE SMALLOFFICE WHOLEBUILDING - SM OFFICE A  - STORY GROUND,SizingPeriod: CLIMATE ZONE 3 ANN HTG 99.6% CONDNS DB,2.3931474086E-015,2.1687184400E-015,Pass,Pass,4.5726510233E-006,1.5194899311E-006,Pass,Pass
 Warmup Convergence Information,ZONE SMALLOFFICE WHOLEBUILDING - SM OFFICE A END_A - STORY GROUND,SizingPeriod: CLIMATE ZONE 3 ANN HTG 99.6% CONDNS DB,1.9490581988E-015,1.8644631152E-015,Pass,Pass,6.3238884214E-006,2.0971506168E-006,Pass,Pass
 Warmup Convergence Information,ZONE SMALLOFFICE WHOLEBUILDING - SM OFFICE A END_B - STORY GROUND,SizingPeriod: CLIMATE ZONE 3 ANN HTG 99.6% CONDNS DB,2.7878933729E-015,2.5524102426E-015,Pass,Pass,6.7840411077E-006,2.2123415555E-006,Pass,Pass
 Warmup Convergence Information,ZONE SMALLOFFICE WHOLEBUILDING - SM OFFICE B  - STORY GROUND,SizingPeriod: CLIMATE ZONE 3 ANN HTG 99.6% CONDNS DB,2.4918338997E-015,2.3341754371E-015,Pass,Pass,1.7122032852E-007,5.5937251535E-008,Pass,Pass
 Warmup Convergence Information,ZONE SMALLOFFICE WHOLEBUILDING - SM OFFICE B END_A - STORY GROUND,SizingPeriod: CLIMATE ZONE 3 ANN HTG 99.6% CONDNS DB,2.9112514868E-015,2.5691678014E-015,Pass,Pass,4.5790799031E-006,1.5215284924E-006,Pass,Pass
 Warmup Convergence Information,ZONE SMALLOFFICE WHOLEBUILDING - SM OFFICE B END_B - STORY GROUND,SizingPeriod: CLIMATE ZONE 3 ANN HTG 99.6% CONDNS DB,2.3931474086E-015,2.1687184400E-015,Pass,Pass,5.2438948631E-006,1.6884701648E-006,Pass,Pass
 Warmup Convergence Information,ZONE SMALLOFFICE WHOLEBUILDING - SM OFFICE C  - STORY GROUND,SizingPeriod: CLIMATE ZONE 3 ANN HTG 99.6% CONDNS DB,2.1957744265E-015,2.1754440334E-015,Pass,Pass,5.2383129987E-006,1.6866493675E-006,Pass,Pass
 Warmup Convergence Information,ZONE SMALLOFFICE WHOLEBUILDING - SM OFFICE C END_A - STORY GROUND,SizingPeriod: CLIMATE ZONE 3 ANN HTG 99.6% CONDNS DB,2.1464311809E-015,2.3765573743E-015,Pass,Pass,6.7841429989E-006,2.2123675181E-006,Pass,Pass
 Warmup Convergence Information,ZONE SMALLOFFICE WHOLEBUILDING - SM OFFICE C END_B - STORY GROUND,SizingPeriod: CLIMATE ZONE 3 ANN HTG 99.6% CONDNS DB,2.6151920136E-015,2.5805149356E-015,Pass,Pass,7.2448044718E-006,2.3276753204E-006,Pass,Pass
Environment,CLIMATE ZONE 3 ANN CLG .4% CONDNS DB=>MWB HVAC Sizing Pass 1,SizingPeriod:DesignDay,08/21,08/21,SummerDesignDay,1,N/A,N/A,N/A,N/A,N/A,N/A,Clark and Allen
Environment:Daylight Saving,No,SizingPeriod:DesignDay
Environment,CLIMATE ZONE 3 ANN CLG .4% CONDNS WB=>MDB HVAC Sizing Pass 1,SizingPeriod:DesignDay,08/21,08/21,SummerDesignDay,1,N/A,N/A,N/A,N/A,N/A,N/A,Clark and Allen
Environment:Daylight Saving,No,SizingPeriod:DesignDay
Environment,CLIMATE ZONE 3 ANN HTG 99.6% CONDNS DB HVAC Sizing Pass 1,SizingPeriod:DesignDay,01/21,01/21,WinterDesignDay,1,N/A,N/A,N/A,N/A,N/A,N/A,Clark and Allen
Environment:Daylight Saving,No,SizingPeriod:DesignDay
! <Program Control Information:Threads/Parallel Sims>, Threading Supported,Maximum Number of Threads, Env Set Threads (OMP_NUM_THREADS), EP Env Set Threads (EP_OMP_NUM_THREADS), IDF Set Threads, Number of Threads Used (Interior Radiant Exchange), Number Nominal Surfaces, Number Parallel Sims
Program Control:Threads/Parallel Sims, No,1, N/A, N/A, N/A, N/A, N/A, N/A
End of Data
