{
   "completed_at" : "20210625T145150Z",
   "completed_status" : "Success",
   "created_at" : "20210625T145146Z",
   "current_step" : 0,
   "eplusout_err" : "Program Version,EnergyPlus, Version 9.4.0-998c4b761e, YMD=2021.06.25 08:51,\n   ************* Beginning Zone Sizing Calculations\n   ** Warning ** Weather file location will be used rather than entered (IDF) Location object.\n   **   ~~~   ** ..Location object=CLIMATE ZONE 3_CA_USA\n   **   ~~~   ** ..Weather File Location=Climate Zone 3 CA USA CTZRV2 WMO#=724930\n   **   ~~~   ** ..due to location differences, Latitude difference=[9.18] degrees, Longitude difference=[40.82] degrees.\n   **   ~~~   ** ..Time Zone difference=[0.0] hour(s), Elevation difference=[0.00] percent, [0.00] meters.\n   ** Warning ** ProcessScheduleInput: Schedule:Constant=\"ALWAYS OFF DISCRETE\", Blank Schedule Type Limits Name input -- will not be validated.\n   ** Warning ** ProcessScheduleInput: Schedule:Constant=\"ALWAYS ON CONTINUOUS\", Blank Schedule Type Limits Name input -- will not be validated.\n   ** Warning ** GetHTSurfaceData: Surfaces with interface to Ground found but no \"Ground Temperatures\" were input.\n   **   ~~~   ** Found first in surface=SURFACE 19\n   **   ~~~   ** Defaults, constant throughout the year of (18.0) will be used.\n   ** Warning ** CheckUsedConstructions: There are 11 nominally unused constructions in input.\n   **   ~~~   ** For explicit details on each unused construction, use Output:Diagnostics,DisplayExtraWarnings;\n   ** Warning ** GetInternalHeatGains: People Combination of ZoneList and Object Name generate a name too long.\n   **   ~~~   ** Object Name=\"MEDIUMOFFICE WHOLEBUILDING - MD OFFICE PEOPLE\".\n   **   ~~~   ** ZoneList/Zone Name=\"ZONE MEDIUMOFFICE WHOLEBUILDING - MD OFFICE A  - STORY GROUND\".\n   **   ~~~   ** Item length=[106] > Maximum Length=[100]. You may need to shorten the names.\n   **   ~~~   ** Shortening the Object Name by [12] characters will assure uniqueness for this ZoneList.\n   **   ~~~   ** name that will be used (may be needed in reporting)=\"ZONE MEDIUMOFFICE WHOLEBUILDING - MD OFFICE A  - STORY GROUND MEDIUMOFFICE WHOLEBUILDING - MD OFFICE PEOPLE\".\n   ** Warning ** GetInternalHeatGains: People=\"MEDIUMOFFICE WHOLEBUILDING - MD OFFICE PEOPLE\" has comfort related schedules but no thermal comfort model selected.\n   **   ~~~   ** If schedules are specified for air velocity, clothing insulation, and/or work efficiency but no thermal comfort\n   **   ~~~   ** thermal comfort model is selected, the schedules will be listed as unused schedules in the .err file.\n   **   ~~~   ** To avoid these errors, select a valid thermal comfort model or eliminate these schedules in the PEOPLE input.\n   ** Warning ** GetInternalHeatGains: People Combination of ZoneList and Object Name generate a name too long.\n   **   ~~~   ** Object Name=\"MEDIUMOFFICE WHOLEBUILDING - MD OFFICE PEOPLE\".\n   **   ~~~   ** ZoneList/Zone Name=\"ZONE MEDIUMOFFICE WHOLEBUILDING - MD OFFICE A END_A - STORY GROUND\".\n   **   ~~~   ** Item length=[111] > Maximum Length=[100]. You may need to shorten the names.\n   **   ~~~   ** Shortening the Object Name by [12] characters will assure uniqueness for this ZoneList.\n   **   ~~~   ** name that will be used (may be needed in reporting)=\"ZONE MEDIUMOFFICE WHOLEBUILDING - MD OFFICE A END_A - STORY GROUND MEDIUMOFFICE WHOLEBUILDING - MD OFFICE PEOPLE\".\n   ** Warning ** GetInternalHeatGains: People=\"MEDIUMOFFICE WHOLEBUILDING - MD OFFICE PEOPLE\" has comfort related schedules but no thermal comfort model selected.\n   **   ~~~   ** If schedules are specified for air velocity, clothing insulation, and/or work efficiency but no thermal comfort\n   **   ~~~   ** thermal comfort model is selected, the schedules will be listed as unused schedules in the .err file.\n   **   ~~~   ** To avoid these errors, select a valid thermal comfort model or eliminate these schedules in the PEOPLE input.\n   ** Warning ** GetInternalHeatGains: People Combination of ZoneList and Object Name generate a name too long.\n   **   ~~~   ** Object Name=\"MEDIUMOFFICE WHOLEBUILDING - MD OFFICE PEOPLE\".\n   **   ~~~   ** ZoneList/Zone Name=\"ZONE MEDIUMOFFICE WHOLEBUILDING - MD OFFICE A END_B - STORY GROUND\".\n   **   ~~~   ** Item length=[111] > Maximum Length=[100]. You may need to shorten the names.\n   **   ~~~   ** Shortening the Object Name by [12] characters will assure uniqueness for this ZoneList.\n   **   ~~~   ** name that will be used (may be needed in reporting)=\"ZONE MEDIUMOFFICE WHOLEBUILDING - MD OFFICE A END_B - STORY GROUND MEDIUMOFFICE WHOLEBUILDING - MD OFFICE PEOPLE\".\n   ** Warning ** GetInternalHeatGains: People=\"MEDIUMOFFICE WHOLEBUILDING - MD OFFICE PEOPLE\" has comfort related schedules but no thermal comfort model selected.\n   **   ~~~   ** If schedules are specified for air velocity, clothing insulation, and/or work efficiency but no thermal comfort\n   **   ~~~   ** thermal comfort model is selected, the schedules will be listed as unused schedules in the .err file.\n   **   ~~~   ** To avoid these errors, select a valid thermal comfort model or eliminate these schedules in the PEOPLE input.\n   ** Warning ** GetInternalHeatGains: People Combination of ZoneList and Object Name generate a name too long.\n   **   ~~~   ** Object Name=\"MEDIUMOFFICE WHOLEBUILDING - MD OFFICE PEOPLE\".\n   **   ~~~   ** ZoneList/Zone Name=\"ZONE MEDIUMOFFICE WHOLEBUILDING - MD OFFICE B  - STORY GROUND\".\n   **   ~~~   ** Item length=[106] > Maximum Length=[100]. You may need to shorten the names.\n   **   ~~~   ** Shortening the Object Name by [12] characters will assure uniqueness for this ZoneList.\n   **   ~~~   ** name that will be used (may be needed in reporting)=\"ZONE MEDIUMOFFICE WHOLEBUILDING - MD OFFICE B  - STORY GROUND MEDIUMOFFICE WHOLEBUILDING - MD OFFICE PEOPLE\".\n   ** Warning ** GetInternalHeatGains: People=\"MEDIUMOFFICE WHOLEBUILDING - MD OFFICE PEOPLE\" has comfort related schedules but no thermal comfort model selected.\n   **   ~~~   ** If schedules are specified for air velocity, clothing insulation, and/or work efficiency but no thermal comfort\n   **   ~~~   ** thermal comfort model is selected, the schedules will be listed as unused schedules in the .err file.\n   **   ~~~   ** To avoid these errors, select a valid thermal comfort model or eliminate these schedules in the PEOPLE input.\n   ** Warning ** GetInternalHeatGains: People Combination of ZoneList and Object Name generate a name too long.\n   **   ~~~   ** Object Name=\"MEDIUMOFFICE WHOLEBUILDING - MD OFFICE PEOPLE\".\n   **   ~~~   ** ZoneList/Zone Name=\"ZONE MEDIUMOFFICE WHOLEBUILDING - MD OFFICE B END_A - STORY GROUND\".\n   **   ~~~   ** Item length=[111] > Maximum Length=[100]. You may need to shorten the names.\n   **   ~~~   ** Shortening the Object Name by [12] characters will assure uniqueness for this ZoneList.\n   **   ~~~   ** name that will be used (may be needed in reporting)=\"ZONE MEDIUMOFFICE WHOLEBUILDING - MD OFFICE B END_A - STORY GROUND MEDIUMOFFICE WHOLEBUILDING - MD OFFICE PEOPLE\".\n   ** Warning ** GetInternalHeatGains: People=\"MEDIUMOFFICE WHOLEBUILDING - MD OFFICE PEOPLE\" has comfort related schedules but no thermal comfort model selected.\n   **   ~~~   ** If schedules are specified for air velocity, clothing insulation, and/or work efficiency but no thermal comfort\n   **   ~~~   ** thermal comfort model is selected, the schedules will be listed as unused schedules in the .err file.\n   **   ~~~   ** To avoid these errors, select a valid thermal comfort model or eliminate these schedules in the PEOPLE input.\n   ** Warning ** GetInternalHeatGains: People Combination of ZoneList and Object Name generate a name too long.\n   **   ~~~   ** Object Name=\"MEDIUMOFFICE WHOLEBUILDING - MD OFFICE PEOPLE\".\n   **   ~~~   ** ZoneList/Zone Name=\"ZONE MEDIUMOFFICE WHOLEBUILDING - MD OFFICE B END_B - STORY GROUND\".\n   **   ~~~   ** Item length=[111] > Maximum Length=[100]. You may need to shorten the names.\n   **   ~~~   ** Shortening the Object Name by [12] characters will assure uniqueness for this ZoneList.\n   **   ~~~   ** name that will be used (may be needed in reporting)=\"ZONE MEDIUMOFFICE WHOLEBUILDING - MD OFFICE B END_B - STORY GROUND MEDIUMOFFICE WHOLEBUILDING - MD OFFICE PEOPLE\".\n   ** Warning ** GetInternalHeatGains: People=\"MEDIUMOFFICE WHOLEBUILDING - MD OFFICE PEOPLE\" has comfort related schedules but no thermal comfort model selected.\n   **   ~~~   ** If schedules are specified for air velocity, clothing insulation, and/or work efficiency but no thermal comfort\n   **   ~~~   ** thermal comfort model is selected, the schedules will be listed as unused schedules in the .err file.\n   **   ~~~   ** To avoid these errors, select a valid thermal comfort model or eliminate these schedules in the PEOPLE input.\n   ** Warning ** GetInternalHeatGains: People Combination of ZoneList and Object Name generate a name too long.\n   **   ~~~   ** Object Name=\"MEDIUMOFFICE WHOLEBUILDING - MD OFFICE PEOPLE\".\n   **   ~~~   ** ZoneList/Zone Name=\"ZONE MEDIUMOFFICE WHOLEBUILDING - MD OFFICE C  - STORY GROUND\".\n   **   ~~~   ** Item length=[106] > Maximum Length=[100]. You may need to shorten the names.\n   **   ~~~   ** Shortening the Object Name by [12] characters will assure uniqueness for this ZoneList.\n   **   ~~~   ** name that will be used (may be needed in reporting)=\"ZONE MEDIUMOFFICE WHOLEBUILDING - MD OFFICE C  - STORY GROUND MEDIUMOFFICE WHOLEBUILDING - MD OFFICE PEOPLE\".\n   ** Warning ** GetInternalHeatGains: People=\"MEDIUMOFFICE WHOLEBUILDING - MD OFFICE PEOPLE\" has comfort related schedules but no thermal comfort model selected.\n   **   ~~~   ** If schedules are specified for air velocity, clothing insulation, and/or work efficiency but no thermal comfort\n   **   ~~~   ** thermal comfort model is selected, the schedules will be listed as unused schedules in the .err file.\n   **   ~~~   ** To avoid these errors, select a valid thermal comfort model or eliminate these schedules in the PEOPLE input.\n   ** Warning ** GetInternalHeatGains: People Combination of ZoneList and Object Name generate a name too long.\n   **   ~~~   ** Object Name=\"MEDIUMOFFICE WHOLEBUILDING - MD OFFICE PEOPLE\".\n   **   ~~~   ** ZoneList/Zone Name=\"ZONE MEDIUMOFFICE WHOLEBUILDING - MD OFFICE C END_A - STORY GROUND\".\n   **   ~~~   ** Item length=[111] > Maximum Length=[100]. You may need to shorten the names.\n   **   ~~~   ** Shortening the Object Name by [12] characters will assure uniqueness for this ZoneList.\n   **   ~~~   ** name that will be used (may be needed in reporting)=\"ZONE MEDIUMOFFICE WHOLEBUILDING - MD OFFICE C END_A - STORY GROUND MEDIUMOFFICE WHOLEBUILDING - MD OFFICE PEOPLE\".\n   ** Warning ** GetInternalHeatGains: People=\"MEDIUMOFFICE WHOLEBUILDING - MD OFFICE PEOPLE\" has comfort related schedules but no thermal comfort model selected.\n   **   ~~~   ** If schedules are specified for air velocity, clothing insulation, and/or work efficiency but no thermal comfort\n   **   ~~~   ** thermal comfort model is selected, the schedules will be listed as unused schedules in the .err file.\n   **   ~~~   ** To avoid these errors, select a valid thermal comfort model or eliminate these schedules in the PEOPLE input.\n   ** Warning ** GetInternalHeatGains: People Combination of ZoneList and Object Name generate a name too long.\n   **   ~~~   ** Object Name=\"MEDIUMOFFICE WHOLEBUILDING - MD OFFICE PEOPLE\".\n   **   ~~~   ** ZoneList/Zone Name=\"ZONE MEDIUMOFFICE WHOLEBUILDING - MD OFFICE C END_B - STORY GROUND\".\n   **   ~~~   ** Item length=[111] > Maximum Length=[100]. You may need to shorten the names.\n   **   ~~~   ** Shortening the Object Name by [12] characters will assure uniqueness for this ZoneList.\n   **   ~~~   ** name that will be used (may be needed in reporting)=\"ZONE MEDIUMOFFICE WHOLEBUILDING - MD OFFICE C END_B - STORY GROUND MEDIUMOFFICE WHOLEBUILDING - MD OFFICE PEOPLE\".\n   ** Warning ** GetInternalHeatGains: People=\"MEDIUMOFFICE WHOLEBUILDING - MD OFFICE PEOPLE\" has comfort related schedules but no thermal comfort model selected.\n   **   ~~~   ** If schedules are specified for air velocity, clothing insulation, and/or work efficiency but no thermal comfort\n   **   ~~~   ** thermal comfort model is selected, the schedules will be listed as unused schedules in the .err file.\n   **   ~~~   ** To avoid these errors, select a valid thermal comfort model or eliminate these schedules in the PEOPLE input.\n   ** Warning ** GetInternalHeatGains: Lights Combination of ZoneList and Object Name generate a name too long.\n   **   ~~~   ** Object Name=\"MEDIUMOFFICE WHOLEBUILDING - MD OFFICE LIGHTS\".\n   **   ~~~   ** ZoneList/Zone Name=\"ZONE MEDIUMOFFICE WHOLEBUILDING - MD OFFICE A  - STORY GROUND\".\n   **   ~~~   ** Item length=[106] > Maximum Length=[100]. You may need to shorten the names.\n   **   ~~~   ** Shortening the Object Name by [12] characters will assure uniqueness for this ZoneList.\n   **   ~~~   ** name that will be used (may be needed in reporting)=\"ZONE MEDIUMOFFICE WHOLEBUILDING - MD OFFICE A  - STORY GROUND MEDIUMOFFICE WHOLEBUILDING - MD OFFICE LIGHTS\".\n   ** Warning ** GetInternalHeatGains: Lights Combination of ZoneList and Object Name generate a name too long.\n   **   ~~~   ** Object Name=\"MEDIUMOFFICE WHOLEBUILDING - MD OFFICE LIGHTS\".\n   **   ~~~   ** ZoneList/Zone Name=\"ZONE MEDIUMOFFICE WHOLEBUILDING - MD OFFICE A END_A - STORY GROUND\".\n   **   ~~~   ** Item length=[111] > Maximum Length=[100]. You may need to shorten the names.\n   **   ~~~   ** Shortening the Object Name by [12] characters will assure uniqueness for this ZoneList.\n   **   ~~~   ** name that will be used (may be needed in reporting)=\"ZONE MEDIUMOFFICE WHOLEBUILDING - MD OFFICE A END_A - STORY GROUND MEDIUMOFFICE WHOLEBUILDING - MD OFFICE LIGHTS\".\n   ** Warning ** GetInternalHeatGains: Lights Combination of ZoneList and Object Name generate a name too long.\n   **   ~~~   ** Object Name=\"MEDIUMOFFICE WHOLEBUILDING - MD OFFICE LIGHTS\".\n   **   ~~~   ** ZoneList/Zone Name=\"ZONE MEDIUMOFFICE WHOLEBUILDING - MD OFFICE A END_B - STORY GROUND\".\n   **   ~~~   ** Item length=[111] > Maximum Length=[100]. You may need to shorten the names.\n   **   ~~~   ** Shortening the Object Name by [12] characters will assure uniqueness for this ZoneList.\n   **   ~~~   ** name that will be used (may be needed in reporting)=\"ZONE MEDIUMOFFICE WHOLEBUILDING - MD OFFICE A END_B - STORY GROUND MEDIUMOFFICE WHOLEBUILDING - MD OFFICE LIGHTS\".\n   ** Warning ** GetInternalHeatGains: Lights Combination of ZoneList and Object Name generate a name too long.\n   **   ~~~   ** Object Name=\"MEDIUMOFFICE WHOLEBUILDING - MD OFFICE LIGHTS\".\n   **   ~~~   ** ZoneList/Zone Name=\"ZONE MEDIUMOFFICE WHOLEBUILDING - MD OFFICE B  - STORY GROUND\".\n   **   ~~~   ** Item length=[106] > Maximum Length=[100]. You may need to shorten the names.\n   **   ~~~   ** Shortening the Object Name by [12] characters will assure uniqueness for this ZoneList.\n   **   ~~~   ** name that will be used (may be needed in reporting)=\"ZONE MEDIUMOFFICE WHOLEBUILDING - MD OFFICE B  - STORY GROUND MEDIUMOFFICE WHOLEBUILDING - MD OFFICE LIGHTS\".\n   ** Warning ** GetInternalHeatGains: Lights Combination of ZoneList and Object Name generate a name too long.\n   **   ~~~   ** Object Name=\"MEDIUMOFFICE WHOLEBUILDING - MD OFFICE LIGHTS\".\n   **   ~~~   ** ZoneList/Zone Name=\"ZONE MEDIUMOFFICE WHOLEBUILDING - MD OFFICE B END_A - STORY GROUND\".\n   **   ~~~   ** Item length=[111] > Maximum Length=[100]. You may need to shorten the names.\n   **   ~~~   ** Shortening the Object Name by [12] characters will assure uniqueness for this ZoneList.\n   **   ~~~   ** name that will be used (may be needed in reporting)=\"ZONE MEDIUMOFFICE WHOLEBUILDING - MD OFFICE B END_A - STORY GROUND MEDIUMOFFICE WHOLEBUILDING - MD OFFICE LIGHTS\".\n   ** Warning ** GetInternalHeatGains: Lights Combination of ZoneList and Object Name generate a name too long.\n   **   ~~~   ** Object Name=\"MEDIUMOFFICE WHOLEBUILDING - MD OFFICE LIGHTS\".\n   **   ~~~   ** ZoneList/Zone Name=\"ZONE MEDIUMOFFICE WHOLEBUILDING - MD OFFICE B END_B - STORY GROUND\".\n   **   ~~~   ** Item length=[111] > Maximum Length=[100]. You may need to shorten the names.\n   **   ~~~   ** Shortening the Object Name by [12] characters will assure uniqueness for this ZoneList.\n   **   ~~~   ** name that will be used (may be needed in reporting)=\"ZONE MEDIUMOFFICE WHOLEBUILDING - MD OFFICE B END_B - STORY GROUND MEDIUMOFFICE WHOLEBUILDING - MD OFFICE LIGHTS\".\n   ** Warning ** GetInternalHeatGains: Lights Combination of ZoneList and Object Name generate a name too long.\n   **   ~~~   ** Object Name=\"MEDIUMOFFICE WHOLEBUILDING - MD OFFICE LIGHTS\".\n   **   ~~~   ** ZoneList/Zone Name=\"ZONE MEDIUMOFFICE WHOLEBUILDING - MD OFFICE C  - STORY GROUND\".\n   **   ~~~   ** Item length=[106] > Maximum Length=[100]. You may need to shorten the names.\n   **   ~~~   ** Shortening the Object Name by [12] characters will assure uniqueness for this ZoneList.\n   **   ~~~   ** name that will be used (may be needed in reporting)=\"ZONE MEDIUMOFFICE WHOLEBUILDING - MD OFFICE C  - STORY GROUND MEDIUMOFFICE WHOLEBUILDING - MD OFFICE LIGHTS\".\n   ** Warning ** GetInternalHeatGains: Lights Combination of ZoneList and Object Name generate a name too long.\n   **   ~~~   ** Object Name=\"MEDIUMOFFICE WHOLEBUILDING - MD OFFICE LIGHTS\".\n   **   ~~~   ** ZoneList/Zone Name=\"ZONE MEDIUMOFFICE WHOLEBUILDING - MD OFFICE C END_A - STORY GROUND\".\n   **   ~~~   ** Item length=[111] > Maximum Length=[100]. You may need to shorten the names.\n   **   ~~~   ** Shortening the Object Name by [12] characters will assure uniqueness for this ZoneList.\n   **   ~~~   ** name that will be used (may be needed in reporting)=\"ZONE MEDIUMOFFICE WHOLEBUILDING - MD OFFICE C END_A - STORY GROUND MEDIUMOFFICE WHOLEBUILDING - MD OFFICE LIGHTS\".\n   ** Warning ** GetInternalHeatGains: Lights Combination of ZoneList and Object Name generate a name too long.\n   **   ~~~   ** Object Name=\"MEDIUMOFFICE WHOLEBUILDING - MD OFFICE LIGHTS\".\n   **   ~~~   ** ZoneList/Zone Name=\"ZONE MEDIUMOFFICE WHOLEBUILDING - MD OFFICE C END_B - STORY GROUND\".\n   **   ~~~   ** Item length=[111] > Maximum Length=[100]. You may need to shorten the names.\n   **   ~~~   ** Shortening the Object Name by [12] characters will assure uniqueness for this ZoneList.\n   **   ~~~   ** name that will be used (may be needed in reporting)=\"ZONE MEDIUMOFFICE WHOLEBUILDING - MD OFFICE C END_B - STORY GROUND MEDIUMOFFICE WHOLEBUILDING - MD OFFICE LIGHTS\".\n   ** Warning ** GetInternalHeatGains: ElectricEquipment Combination of ZoneList and Object Name generate a name too long.\n   **   ~~~   ** Object Name=\"MEDIUMOFFICE WHOLEBUILDING - MD OFFICE ELEC EQUIP\".\n   **   ~~~   ** ZoneList/Zone Name=\"ZONE MEDIUMOFFICE WHOLEBUILDING - MD OFFICE A  - STORY GROUND\".\n   **   ~~~   ** Item length=[110] > Maximum Length=[100]. You may need to shorten the names.\n   **   ~~~   ** Shortening the Object Name by [16] characters will assure uniqueness for this ZoneList.\n   **   ~~~   ** name that will be used (may be needed in reporting)=\"ZONE MEDIUMOFFICE WHOLEBUILDING - MD OFFICE A  - STORY GROUND MEDIUMOFFICE WHOLEBUILDING - MD OFFICE ELEC EQUIP\".\n   ** Warning ** GetInternalHeatGains: ElectricEquipment Combination of ZoneList and Object Name generate a name too long.\n   **   ~~~   ** Object Name=\"MEDIUMOFFICE WHOLEBUILDING - MD OFFICE ELEC EQUIP\".\n   **   ~~~   ** ZoneList/Zone Name=\"ZONE MEDIUMOFFICE WHOLEBUILDING - MD OFFICE A END_A - STORY GROUND\".\n   **   ~~~   ** Item length=[115] > Maximum Length=[100]. You may need to shorten the names.\n   **   ~~~   ** Shortening the Object Name by [16] characters will assure uniqueness for this ZoneList.\n   **   ~~~   ** name that will be used (may be needed in reporting)=\"ZONE MEDIUMOFFICE WHOLEBUILDING - MD OFFICE A END_A - STORY GROUND MEDIUMOFFICE WHOLEBUILDING - MD OFFICE ELEC EQUIP\".\n   ** Warning ** GetInternalHeatGains: ElectricEquipment Combination of ZoneList and Object Name generate a name too long.\n   **   ~~~   ** Object Name=\"MEDIUMOFFICE WHOLEBUILDING - MD OFFICE ELEC EQUIP\".\n   **   ~~~   ** ZoneList/Zone Name=\"ZONE MEDIUMOFFICE WHOLEBUILDING - MD OFFICE A END_B - STORY GROUND\".\n   **   ~~~   ** Item length=[115] > Maximum Length=[100]. You may need to shorten the names.\n   **   ~~~   ** Shortening the Object Name by [16] characters will assure uniqueness for this ZoneList.\n   **   ~~~   ** name that will be used (may be needed in reporting)=\"ZONE MEDIUMOFFICE WHOLEBUILDING - MD OFFICE A END_B - STORY GROUND MEDIUMOFFICE WHOLEBUILDING - MD OFFICE ELEC EQUIP\".\n   ** Warning ** GetInternalHeatGains: ElectricEquipment Combination of ZoneList and Object Name generate a name too long.\n   **   ~~~   ** Object Name=\"MEDIUMOFFICE WHOLEBUILDING - MD OFFICE ELEC EQUIP\".\n   **   ~~~   ** ZoneList/Zone Name=\"ZONE MEDIUMOFFICE WHOLEBUILDING - MD OFFICE B  - STORY GROUND\".\n   **   ~~~   ** Item length=[110] > Maximum Length=[100]. You may need to shorten the names.\n   **   ~~~   ** Shortening the Object Name by [16] characters will assure uniqueness for this ZoneList.\n   **   ~~~   ** name that will be used (may be needed in reporting)=\"ZONE MEDIUMOFFICE WHOLEBUILDING - MD OFFICE B  - STORY GROUND MEDIUMOFFICE WHOLEBUILDING - MD OFFICE ELEC EQUIP\".\n   ** Warning ** GetInternalHeatGains: ElectricEquipment Combination of ZoneList and Object Name generate a name too long.\n   **   ~~~   ** Object Name=\"MEDIUMOFFICE WHOLEBUILDING - MD OFFICE ELEC EQUIP\".\n   **   ~~~   ** ZoneList/Zone Name=\"ZONE MEDIUMOFFICE WHOLEBUILDING - MD OFFICE B END_A - STORY GROUND\".\n   **   ~~~   ** Item length=[115] > Maximum Length=[100]. You may need to shorten the names.\n   **   ~~~   ** Shortening the Object Name by [16] characters will assure uniqueness for this ZoneList.\n   **   ~~~   ** name that will be used (may be needed in reporting)=\"ZONE MEDIUMOFFICE WHOLEBUILDING - MD OFFICE B END_A - STORY GROUND MEDIUMOFFICE WHOLEBUILDING - MD OFFICE ELEC EQUIP\".\n   ** Warning ** GetInternalHeatGains: ElectricEquipment Combination of ZoneList and Object Name generate a name too long.\n   **   ~~~   ** Object Name=\"MEDIUMOFFICE WHOLEBUILDING - MD OFFICE ELEC EQUIP\".\n   **   ~~~   ** ZoneList/Zone Name=\"ZONE MEDIUMOFFICE WHOLEBUILDING - MD OFFICE B END_B - STORY GROUND\".\n   **   ~~~   ** Item length=[115] > Maximum Length=[100]. You may need to shorten the names.\n   **   ~~~   ** Shortening the Object Name by [16] characters will assure uniqueness for this ZoneList.\n   **   ~~~   ** name that will be used (may be needed in reporting)=\"ZONE MEDIUMOFFICE WHOLEBUILDING - MD OFFICE B END_B - STORY GROUND MEDIUMOFFICE WHOLEBUILDING - MD OFFICE ELEC EQUIP\".\n   ** Warning ** GetInternalHeatGains: ElectricEquipment Combination of ZoneList and Object Name generate a name too long.\n   **   ~~~   ** Object Name=\"MEDIUMOFFICE WHOLEBUILDING - MD OFFICE ELEC EQUIP\".\n   **   ~~~   ** ZoneList/Zone Name=\"ZONE MEDIUMOFFICE WHOLEBUILDING - MD OFFICE C  - STORY GROUND\".\n   **   ~~~   ** Item length=[110] > Maximum Length=[100]. You may need to shorten the names.\n   **   ~~~   ** Shortening the Object Name by [16] characters will assure uniqueness for this ZoneList.\n   **   ~~~   ** name that will be used (may be needed in reporting)=\"ZONE MEDIUMOFFICE WHOLEBUILDING - MD OFFICE C  - STORY GROUND MEDIUMOFFICE WHOLEBUILDING - MD OFFICE ELEC EQUIP\".\n   ** Warning ** GetInternalHeatGains: ElectricEquipment Combination of ZoneList and Object Name generate a name too long.\n   **   ~~~   ** Object Name=\"MEDIUMOFFICE WHOLEBUILDING - MD OFFICE ELEC EQUIP\".\n   **   ~~~   ** ZoneList/Zone Name=\"ZONE MEDIUMOFFICE WHOLEBUILDING - MD OFFICE C END_A - STORY GROUND\".\n   **   ~~~   ** Item length=[115] > Maximum Length=[100]. You may need to shorten the names.\n   **   ~~~   ** Shortening the Object Name by [16] characters will assure uniqueness for this ZoneList.\n   **   ~~~   ** name that will be used (may be needed in reporting)=\"ZONE MEDIUMOFFICE WHOLEBUILDING - MD OFFICE C END_A - STORY GROUND MEDIUMOFFICE WHOLEBUILDING - MD OFFICE ELEC EQUIP\".\n   ** Warning ** GetInternalHeatGains: ElectricEquipment Combination of ZoneList and Object Name generate a name too long.\n   **   ~~~   ** Object Name=\"MEDIUMOFFICE WHOLEBUILDING - MD OFFICE ELEC EQUIP\".\n   **   ~~~   ** ZoneList/Zone Name=\"ZONE MEDIUMOFFICE WHOLEBUILDING - MD OFFICE C END_B - STORY GROUND\".\n   **   ~~~   ** Item length=[115] > Maximum Length=[100]. You may need to shorten the names.\n   **   ~~~   ** Shortening the Object Name by [16] characters will assure uniqueness for this ZoneList.\n   **   ~~~   ** name that will be used (may be needed in reporting)=\"ZONE MEDIUMOFFICE WHOLEBUILDING - MD OFFICE C END_B - STORY GROUND MEDIUMOFFICE WHOLEBUILDING - MD OFFICE ELEC EQUIP\".\n   ************* Beginning System Sizing Calculations\n   ** Warning ** Since Zone Minimum Air Flow Input Method = CONSTANT, input for Fixed Minimum Air Flow Rate will be ignored.\n   **   ~~~   ** Occurs in AirTerminal:SingleDuct:VAV:Reheat = ZONE MEDIUMOFFICE WHOLEBUILDING - MD OFFICE A  - STORY GROUND VAV TERMINAL\n   ** Warning ** Since Zone Minimum Air Flow Input Method = CONSTANT, input for Fixed Minimum Air Flow Rate will be ignored.\n   **   ~~~   ** Occurs in AirTerminal:SingleDuct:VAV:Reheat = ZONE MEDIUMOFFICE WHOLEBUILDING - MD OFFICE A END_A - STORY GROUND VAV TERMINAL\n   ** Warning ** Since Zone Minimum Air Flow Input Method = CONSTANT, input for Fixed Minimum Air Flow Rate will be ignored.\n   **   ~~~   ** Occurs in AirTerminal:SingleDuct:VAV:Reheat = ZONE MEDIUMOFFICE WHOLEBUILDING - MD OFFICE A END_B - STORY GROUND VAV TERMINAL\n   ** Warning ** Since Zone Minimum Air Flow Input Method = CONSTANT, input for Fixed Minimum Air Flow Rate will be ignored.\n   **   ~~~   ** Occurs in AirTerminal:SingleDuct:VAV:Reheat = ZONE MEDIUMOFFICE WHOLEBUILDING - MD OFFICE B  - STORY GROUND VAV TERMINAL\n   ** Warning ** Since Zone Minimum Air Flow Input Method = CONSTANT, input for Fixed Minimum Air Flow Rate will be ignored.\n   **   ~~~   ** Occurs in AirTerminal:SingleDuct:VAV:Reheat = ZONE MEDIUMOFFICE WHOLEBUILDING - MD OFFICE B END_A - STORY GROUND VAV TERMINAL\n   ** Warning ** Since Zone Minimum Air Flow Input Method = CONSTANT, input for Fixed Minimum Air Flow Rate will be ignored.\n   **   ~~~   ** Occurs in AirTerminal:SingleDuct:VAV:Reheat = ZONE MEDIUMOFFICE WHOLEBUILDING - MD OFFICE B END_B - STORY GROUND VAV TERMINAL\n   ** Warning ** Since Zone Minimum Air Flow Input Method = CONSTANT, input for Fixed Minimum Air Flow Rate will be ignored.\n   **   ~~~   ** Occurs in AirTerminal:SingleDuct:VAV:Reheat = ZONE MEDIUMOFFICE WHOLEBUILDING - MD OFFICE C  - STORY GROUND VAV TERMINAL\n   ** Warning ** Since Zone Minimum Air Flow Input Method = CONSTANT, input for Fixed Minimum Air Flow Rate will be ignored.\n   **   ~~~   ** Occurs in AirTerminal:SingleDuct:VAV:Reheat = ZONE MEDIUMOFFICE WHOLEBUILDING - MD OFFICE C END_A - STORY GROUND VAV TERMINAL\n   ** Warning ** Since Zone Minimum Air Flow Input Method = CONSTANT, input for Fixed Minimum Air Flow Rate will be ignored.\n   **   ~~~   ** Occurs in AirTerminal:SingleDuct:VAV:Reheat = ZONE MEDIUMOFFICE WHOLEBUILDING - MD OFFICE C END_B - STORY GROUND VAV TERMINAL\n   ************* Beginning Plant Sizing Calculations\n   ** Warning ** GetOAControllerInputs: Controller:MechanicalVentilation=\"9 ZONE PVAV VENTILATION CONTROLLER\n   **   ~~~   ** Cannot locate a matching DesignSpecification:ZoneAirDistribution object for Zone=\"ZONE MEDIUMOFFICE WHOLEBUILDING - MD OFFICE A  - STORY GROUND\".\n   **   ~~~   ** Using default zone air distribution effectiveness of 1.0 for heating and cooling.\n   ** Warning ** GetOAControllerInputs: Controller:MechanicalVentilation=\"9 ZONE PVAV VENTILATION CONTROLLER\n   **   ~~~   ** Cannot locate a matching DesignSpecification:ZoneAirDistribution object for Zone=\"ZONE MEDIUMOFFICE WHOLEBUILDING - MD OFFICE A END_A - STORY GROUND\".\n   **   ~~~   ** Using default zone air distribution effectiveness of 1.0 for heating and cooling.\n   ** Warning ** GetOAControllerInputs: Controller:MechanicalVentilation=\"9 ZONE PVAV VENTILATION CONTROLLER\n   **   ~~~   ** Cannot locate a matching DesignSpecification:ZoneAirDistribution object for Zone=\"ZONE MEDIUMOFFICE WHOLEBUILDING - MD OFFICE A END_B - STORY GROUND\".\n   **   ~~~   ** Using default zone air distribution effectiveness of 1.0 for heating and cooling.\n   ** Warning ** GetOAControllerInputs: Controller:MechanicalVentilation=\"9 ZONE PVAV VENTILATION CONTROLLER\n   **   ~~~   ** Cannot locate a matching DesignSpecification:ZoneAirDistribution object for Zone=\"ZONE MEDIUMOFFICE WHOLEBUILDING - MD OFFICE B  - STORY GROUND\".\n   **   ~~~   ** Using default zone air distribution effectiveness of 1.0 for heating and cooling.\n   ** Warning ** GetOAControllerInputs: Controller:MechanicalVentilation=\"9 ZONE PVAV VENTILATION CONTROLLER\n   **   ~~~   ** Cannot locate a matching DesignSpecification:ZoneAirDistribution object for Zone=\"ZONE MEDIUMOFFICE WHOLEBUILDING - MD OFFICE B END_A - STORY GROUND\".\n   **   ~~~   ** Using default zone air distribution effectiveness of 1.0 for heating and cooling.\n   ** Warning ** GetOAControllerInputs: Controller:MechanicalVentilation=\"9 ZONE PVAV VENTILATION CONTROLLER\n   **   ~~~   ** Cannot locate a matching DesignSpecification:ZoneAirDistribution object for Zone=\"ZONE MEDIUMOFFICE WHOLEBUILDING - MD OFFICE B END_B - STORY GROUND\".\n   **   ~~~   ** Using default zone air distribution effectiveness of 1.0 for heating and cooling.\n   ** Warning ** GetOAControllerInputs: Controller:MechanicalVentilation=\"9 ZONE PVAV VENTILATION CONTROLLER\n   **   ~~~   ** Cannot locate a matching DesignSpecification:ZoneAirDistribution object for Zone=\"ZONE MEDIUMOFFICE WHOLEBUILDING - MD OFFICE C  - STORY GROUND\".\n   **   ~~~   ** Using default zone air distribution effectiveness of 1.0 for heating and cooling.\n   ** Warning ** GetOAControllerInputs: Controller:MechanicalVentilation=\"9 ZONE PVAV VENTILATION CONTROLLER\n   **   ~~~   ** Cannot locate a matching DesignSpecification:ZoneAirDistribution object for Zone=\"ZONE MEDIUMOFFICE WHOLEBUILDING - MD OFFICE C END_A - STORY GROUND\".\n   **   ~~~   ** Using default zone air distribution effectiveness of 1.0 for heating and cooling.\n   ** Warning ** GetOAControllerInputs: Controller:MechanicalVentilation=\"9 ZONE PVAV VENTILATION CONTROLLER\n   **   ~~~   ** Cannot locate a matching DesignSpecification:ZoneAirDistribution object for Zone=\"ZONE MEDIUMOFFICE WHOLEBUILDING - MD OFFICE C END_B - STORY GROUND\".\n   **   ~~~   ** Using default zone air distribution effectiveness of 1.0 for heating and cooling.\n   ** Warning ** Missing temperature setpoint for LeavingSetpointModulated mode Boiler named BOILER\n   **   ~~~   **   A temperature setpoint is needed at the outlet node of a boiler in variable flow mode, use a SetpointManager\n   **   ~~~   **   The overall loop setpoint will be assumed for Boiler. The simulation continues ... \n   ** Warning ** Output:Meter: invalid Key Name=\"DISTRICTCOOLING:FACILITY\" - not found.\n   ** Warning ** Output:Meter: invalid Key Name=\"DISTRICTHEATING:FACILITY\" - not found.\n   ** Warning ** Output:Meter:MeterFileOnly requested for \"Electricity:Facility\" (TimeStep), already on \"Output:Meter\". Will report to both eplusout.eso and eplusout.mtr\n   ************* Testing Individual Branch Integrity\n   ************* All Branches passed integrity testing\n   ************* Testing Individual Supply Air Path Integrity\n   ************* All Supply Air Paths passed integrity testing\n   ************* Testing Individual Return Air Path Integrity\n   ************* All Return Air Paths passed integrity testing\n   ************* No node connection errors were found.\n   ** Warning ** Output:Table:Monthly requested with SimulationControl Run Simulation for Weather File Run Periods set to No so Output:Table:Monthly will not be generated\n   ************* Beginning Simulation\n   ************* Simulation Error Summary *************\n   ************* There are 8 unused objects in input.\n   ************* Use Output:Diagnostics,DisplayUnusedObjects; to see them.\n   ************* There are 7 unused schedules in input.\n   ************* There are 9 unused week schedules in input.\n   ************* There are 16 unused day schedules in input.\n   ************* Use Output:Diagnostics,DisplayUnusedSchedules; to see them.\n   *************\n   ************* ===== Final Error Summary =====\n   ************* The following error categories occurred.  Consider correcting or noting.\n   ************* Nominally Unused Constructions\n   ************* ..The nominally unused constructions warning is provided to alert you to potential conditions that can cause\n   ************* ..extra time during simulation. Each construction is calculated by the algorithm indicated in the HeatBalanceAlgorithm\n   ************* ..object. You may remove the constructions indicated (when you use the DisplayExtraWarnings option).\n   *************\n   ************* EnergyPlus Warmup Error Summary. During Warmup: 0 Warning; 0 Severe Errors.\n   ************* EnergyPlus Sizing Error Summary. During Sizing: 50 Warning; 0 Severe Errors.\n   ************* EnergyPlus Completed Successfully-- 64 Warning; 0 Severe Errors; Elapsed Time=00hr 00min  1.85sec\n",
   "file_paths" : 
   [
      "/Users/llin/Documents/repo/edv-experiment-1/workflow_results/Simulation_Files/Panther_parking_Lorriane/SR/generated_files",
      "./files",
      "./weather",
      "../../files",
      "../../weather",
      "./"
   ],
   "hash" : "FD795E9E",
   "seed_file" : "in.osm",
   "started_at" : "20210625T145147Z",
   "steps" : [],
   "updated_at" : "20210625T145150Z",
   "weather_file" : "in.epw"
}