Program Version,EnergyPlus, Version 9.4.0-998c4b761e, YMD=2021.06.25 08:51
! <Version>, Version ID
 Version, 9.4
! <Timesteps per Hour>, #TimeSteps, Minutes per TimeStep {minutes}
 Timesteps per Hour,  6, 10
! <System Convergence Limits>, Minimum System TimeStep {minutes}, Max HVAC Iterations, Minimum Plant Iterations, Maximum Plant Iterations
 System Convergence Limits, 1, 20, 2, 8
! <Simulation Control>, Do Zone Sizing, Do System Sizing, Do Plant Sizing, Do Design Days, Do Weather Simulation, Do HVAC Sizing Simulation
 Simulation Control, Yes, Yes, Yes, Yes, No, Yes
! <Performance Precision Tradeoffs>, Use Coil Direct Simulation, Zone Radiant Exchange Algorithm, Override Mode, Number of Timestep In Hour, Force Euler Method, Minimum Number of Warmup Days, Force Suppress All Begin Environment Resets, Minimum System Timestep, MaxZoneTempDiff, MaxAllowedDelTemp
 Performance Precision Tradeoffs, No, ScriptF, Normal, 6, No, 1, No, 1.0, 0.300, 2.0000E-003
! <Output Reporting Tolerances>, Tolerance for Time Heating Setpoint Not Met, Tolerance for Zone Cooling Setpoint Not Met Time
 Output Reporting Tolerances, 0.200, 0.200, 
! <Site:GroundTemperature:BuildingSurface>,Jan{C},Feb{C},Mar{C},Apr{C},May{C},Jun{C},Jul{C},Aug{C},Sep{C},Oct{C},Nov{C},Dec{C}
 Site:GroundTemperature:BuildingSurface,  18.00,  18.00,  18.00,  18.00,  18.00,  18.00,  18.00,  18.00,  18.00,  18.00,  18.00,  18.00
! <Site:GroundTemperature:FCfactorMethod>,Jan{C},Feb{C},Mar{C},Apr{C},May{C},Jun{C},Jul{C},Aug{C},Sep{C},Oct{C},Nov{C},Dec{C}
 Site:GroundTemperature:FCfactorMethod,  18.80,  14.30,  13.60,  13.20,  13.30,  12.60,  15.30,  15.60,  17.70,  19.40,  19.70,  18.50
! <Site:GroundTemperature:Shallow>,Jan{C},Feb{C},Mar{C},Apr{C},May{C},Jun{C},Jul{C},Aug{C},Sep{C},Oct{C},Nov{C},Dec{C}
 Site:GroundTemperature:Shallow,  13.00,  13.00,  13.00,  13.00,  13.00,  13.00,  13.00,  13.00,  13.00,  13.00,  13.00,  13.00
! <Site:GroundTemperature:Deep>,Jan{C},Feb{C},Mar{C},Apr{C},May{C},Jun{C},Jul{C},Aug{C},Sep{C},Oct{C},Nov{C},Dec{C}
 Site:GroundTemperature:Deep,  16.00,  16.00,  16.00,  16.00,  16.00,  16.00,  16.00,  16.00,  16.00,  16.00,  16.00,  16.00
! <Site:GroundReflectance>,Jan{dimensionless},Feb{dimensionless},Mar{dimensionless},Apr{dimensionless},May{dimensionless},Jun{dimensionless},Jul{dimensionless},Aug{dimensionless},Sep{dimensionless},Oct{dimensionless},Nov{dimensionless},Dec{dimensionless}
 Site:GroundReflectance,  0.20,  0.20,  0.20,  0.20,  0.20,  0.20,  0.20,  0.20,  0.20,  0.20,  0.20,  0.20
! <Site:GroundReflectance:SnowModifier>, Normal, Daylighting {dimensionless}
 Site:GroundReflectance:SnowModifier,   1.000,   1.000
! <Site:GroundReflectance:Snow>,Jan{dimensionless},Feb{dimensionless},Mar{dimensionless},Apr{dimensionless},May{dimensionless},Jun{dimensionless},Jul{dimensionless},Aug{dimensionless},Sep{dimensionless},Oct{dimensionless},Nov{dimensionless},Dec{dimensionless}
 Site:GroundReflectance:Snow,  0.20,  0.20,  0.20,  0.20,  0.20,  0.20,  0.20,  0.20,  0.20,  0.20,  0.20,  0.20
! <Site:GroundReflectance:Snow:Daylighting>,Jan{dimensionless},Feb{dimensionless},Mar{dimensionless},Apr{dimensionless},May{dimensionless},Jun{dimensionless},Jul{dimensionless},Aug{dimensionless},Sep{dimensionless},Oct{dimensionless},Nov{dimensionless},Dec{dimensionless}
 Site:GroundReflectance:Snow:Daylighting,  0.20,  0.20,  0.20,  0.20,  0.20,  0.20,  0.20,  0.20,  0.20,  0.20,  0.20,  0.20
! <Environment:Weather Station>,Wind Sensor Height Above Ground {m},Wind Speed Profile Exponent {},Wind Speed Profile Boundary Layer Thickness {m},Air Temperature Sensor Height Above Ground {m},Wind Speed Modifier Coefficient-Internal,Temperature Modifier Coefficient-Internal
Environment:Weather Station,10.000,0.140,270.000,1.500,1.586,9.750E-003
! <Site:Location>, Location Name, Latitude {N+/S- Deg}, Longitude {E+/W- Deg},  Time Zone Number {GMT+/-}, Elevation {m},  Standard Pressure at Elevation {Pa}, Standard RhoAir at Elevation
Site:Location,Climate Zone 3 CA USA CTZRV2 WMO#=724930,37.70,-122.20,-8.00,2.00,101301,1.2040
! <Site Water Mains Temperature Information>,Calculation Method{},Water Mains Temperature Schedule Name{},Annual Average Outdoor Air Temperature{C},Maximum Difference In Monthly Average Outdoor Air Temperatures{deltaC},Fixed Default Water Mains Temperature{C}
Site Water Mains Temperature Information,Correlation,NA,14.14,7.80,NA
! <Building Information>, Building Name,North Axis {deg},Terrain,  Loads Convergence Tolerance Value,Temperature Convergence Tolerance Value,  Solar Distribution,Maximum Number of Warmup Days,Minimum Number of Warmup Days
 Building Information,DOE Ref 1980-2004|SmallOffice|SmallOffice,0.000,City,4.00000E-002,0.40000,FullExterior,25,1
! <Inside Convection Algorithm>, Algorithm {Simple | TARP | CeilingDiffuser | AdaptiveConvectionAlgorithm}
Inside Convection Algorithm,TARP
! <Outside Convection Algorithm>, Algorithm {SimpleCombined | TARP | MoWitt | DOE-2 | AdaptiveConvectionAlgorithm}
Outside Convection Algorithm,DOE-2
! <Sky Radiance Distribution>, Value {Anisotropic}
Sky Radiance Distribution,Anisotropic
! <Zone Air Solution Algorithm>, Value {ThirdOrderBackwardDifference | AnalyticalSolution | EulerMethod}
 Zone Air Solution Algorithm, ThirdOrderBackwardDifference
! <Zone Air Carbon Dioxide Balance Simulation>, Simulation {Yes/No}, Carbon Dioxide Concentration
 Zone Air Carbon Dioxide Balance Simulation, No,N/A
! <Zone Air Generic Contaminant Balance Simulation>, Simulation {Yes/No}, Generic Contaminant Concentration
 Zone Air Generic Contaminant Balance Simulation, No,N/A
! <Zone Air Mass Flow Balance Simulation>, Enforce Mass Balance, Adjust Zone Mixing, Adjust Zone Infiltration {AddInfiltration | AdjustInfiltration | None}, Infiltration Zones {MixingSourceZonesOnly | AllZones}
 Zone Air Mass Flow Balance Simulation, No,N/A,N/A,N/A
! <HVACSystemRootFindingAlgorithm>, Value {RegulaFalsi | Bisection | BisectionThenRegulaFalsi | RegulaFalsiThenBisection}
 HVACSystemRootFindingAlgorithm, RegulaFalsi
! <Environment:Site Atmospheric Variation>,Wind Speed Profile Exponent {},Wind Speed Profile Boundary Layer Thickness {m},Air Temperature Gradient Coefficient {K/m}
Environment:Site Atmospheric Variation,0.330,460.000,6.500000E-003
! <Surface Geometry>,Starting Corner,Vertex Input Direction,Coordinate System,Daylight Reference Point Coordinate System,Rectangular (Simple) Surface Coordinate System
 Surface Geometry,UpperLeftCorner,Counterclockwise,RelativeCoordinateSystem,RelativeCoordinateSystem,RelativeToZoneOrigin
! <Surface Heat Transfer Algorithm>, Value {CTF - ConductionTransferFunction | EMPD - MoisturePenetrationDepthConductionTransferFunction | CondFD - ConductionFiniteDifference | HAMT - CombinedHeatAndMoistureFiniteElement} - Description,Inside Surface Max Temperature Limit{C}, Surface Convection Coefficient Lower Limit {W/m2-K}, Surface Convection Coefficient Upper Limit {W/m2-K}
Surface Heat Transfer Algorithm, CTF - ConductionTransferFunction,200,0.10,1000.0
! <Shading Summary>, Number of Fixed Detached Shades, Number of Building Detached Shades, Number of Attached Shades
 Shading Summary,0,0,0
! <Zone Summary>, Number of Zones, Number of Zone Surfaces, Number of SubSurfaces
 Zone Summary,9,66,12
! <Zone Information>,Zone Name,North Axis {deg},Origin X-Coordinate {m},Origin Y-Coordinate {m},Origin Z-Coordinate {m},Centroid X-Coordinate {m},Centroid Y-Coordinate {m},Centroid Z-Coordinate {m},Type,Zone Multiplier,Zone List Multiplier,Minimum X {m},Maximum X {m},Minimum Y {m},Maximum Y {m},Minimum Z {m},Maximum Z {m},Ceiling Height {m},Volume {m3},Zone Inside Convection Algorithm {Simple-Detailed-CeilingDiffuser-TrombeWall},Zone Outside Convection Algorithm {Simple-Detailed-Tarp-MoWitt-DOE-2-BLAST}, Floor Area {m2},Exterior Gross Wall Area {m2},Exterior Net Wall Area {m2},Exterior Window Area {m2}, Number of Surfaces, Number of SubSurfaces, Number of Shading SubSurfaces,  Part of Total Building Area
 Zone Information, ZONE SMALLOFFICE WHOLEBUILDING - SM OFFICE A  - STORY GROUND,0.0,-7.29,-7.91,0.00,-9.84E-015,-5.62,1.52,1,1,1,-7.29,7.29,-7.91,-3.34,0.00,3.05,3.05,203.15,TARP,DOE-2,66.65,44.43,37.77,6.66,6,1,0,Yes
 Zone Information, ZONE SMALLOFFICE WHOLEBUILDING - SM OFFICE A END_A - STORY GROUND,0.0,-11.86,-7.91,0.00,-9.57,-5.62,1.52,1,1,1,-11.86,-7.29,-7.91,-3.34,0.00,3.05,3.05,63.71,TARP,DOE-2,20.90,27.87,23.69,4.18,6,2,0,Yes
 Zone Information, ZONE SMALLOFFICE WHOLEBUILDING - SM OFFICE A END_B - STORY GROUND,0.0,7.29,-7.91,0.00,9.57,-5.62,1.52,1,1,1,7.29,11.86,-7.91,-3.34,0.00,3.05,3.05,63.71,TARP,DOE-2,20.90,27.87,23.69,4.18,6,2,0,Yes
 Zone Information, ZONE SMALLOFFICE WHOLEBUILDING - SM OFFICE B  - STORY GROUND,0.0,-7.29,-3.34,0.00,-9.84E-015,-1.10E-015,1.52,1,1,1,-7.29,7.29,-3.34,3.34,0.00,3.05,3.05,296.38,TARP,DOE-2,97.24,0.00,0.00,0.00,6,0,0,Yes
 Zone Information, ZONE SMALLOFFICE WHOLEBUILDING - SM OFFICE B END_A - STORY GROUND,0.0,-11.86,-3.34,0.00,-9.57,-1.07E-015,1.52,1,1,1,-11.86,-7.29,-3.34,3.34,0.00,3.05,3.05,92.95,TARP,DOE-2,30.50,20.33,17.28,3.05,6,1,0,Yes
 Zone Information, ZONE SMALLOFFICE WHOLEBUILDING - SM OFFICE B END_B - STORY GROUND,0.0,7.29,-3.34,0.00,9.57,-1.12E-015,1.52,1,1,1,7.29,11.86,-3.34,3.34,0.00,3.05,3.05,92.95,TARP,DOE-2,30.50,20.33,17.28,3.05,6,1,0,Yes
 Zone Information, ZONE SMALLOFFICE WHOLEBUILDING - SM OFFICE C  - STORY GROUND,0.0,-7.29,3.34,0.00,-9.96E-015,5.62,1.52,1,1,1,-7.29,7.29,3.34,7.91,0.00,3.05,3.05,203.15,TARP,DOE-2,66.65,44.43,37.77,6.66,6,1,0,Yes
 Zone Information, ZONE SMALLOFFICE WHOLEBUILDING - SM OFFICE C END_A - STORY GROUND,0.0,-11.86,3.34,0.00,-9.57,5.62,1.52,1,1,1,-11.86,-7.29,3.34,7.91,0.00,3.05,3.05,63.71,TARP,DOE-2,20.90,27.87,23.69,4.18,6,2,0,Yes
 Zone Information, ZONE SMALLOFFICE WHOLEBUILDING - SM OFFICE C END_B - STORY GROUND,0.0,7.29,3.34,0.00,9.57,5.62,1.52,1,1,1,7.29,11.86,3.34,7.91,0.00,3.05,3.05,63.71,TARP,DOE-2,20.90,27.87,23.69,4.18,6,2,0,Yes
! <Zone Internal Gains Nominal>,Zone Name, Floor Area {m2},# Occupants,Area per Occupant {m2/person},Occupant per Area {person/m2},Interior Lighting {W/m2},Electric Load {W/m2},Gas Load {W/m2},Other Load {W/m2},Hot Water Eq {W/m2},Steam Equipment {W/m2},Sum Loads per Area {W/m2},Outdoor Controlled Baseboard Heat
 Zone Internal Gains Nominal, ZONE SMALLOFFICE WHOLEBUILDING - SM OFFICE A  - STORY GROUND,66.65,3.6,18.581,5.382E-002,19.483,10.764,0.000,0.000,0.000,0.000,30.247,No
 Zone Internal Gains Nominal, ZONE SMALLOFFICE WHOLEBUILDING - SM OFFICE A END_A - STORY GROUND,20.90,1.1,18.581,5.382E-002,19.483,10.764,0.000,0.000,0.000,0.000,30.247,No
 Zone Internal Gains Nominal, ZONE SMALLOFFICE WHOLEBUILDING - SM OFFICE A END_B - STORY GROUND,20.90,1.1,18.581,5.382E-002,19.483,10.764,0.000,0.000,0.000,0.000,30.247,No
 Zone Internal Gains Nominal, ZONE SMALLOFFICE WHOLEBUILDING - SM OFFICE B  - STORY GROUND,97.24,5.2,18.581,5.382E-002,19.483,10.764,0.000,0.000,0.000,0.000,30.247,No
 Zone Internal Gains Nominal, ZONE SMALLOFFICE WHOLEBUILDING - SM OFFICE B END_A - STORY GROUND,30.50,1.6,18.581,5.382E-002,19.483,10.764,0.000,0.000,0.000,0.000,30.247,No
 Zone Internal Gains Nominal, ZONE SMALLOFFICE WHOLEBUILDING - SM OFFICE B END_B - STORY GROUND,30.50,1.6,18.581,5.382E-002,19.483,10.764,0.000,0.000,0.000,0.000,30.247,No
 Zone Internal Gains Nominal, ZONE SMALLOFFICE WHOLEBUILDING - SM OFFICE C  - STORY GROUND,66.65,3.6,18.581,5.382E-002,19.483,10.764,0.000,0.000,0.000,0.000,30.247,No
 Zone Internal Gains Nominal, ZONE SMALLOFFICE WHOLEBUILDING - SM OFFICE C END_A - STORY GROUND,20.90,1.1,18.581,5.382E-002,19.483,10.764,0.000,0.000,0.000,0.000,30.247,No
 Zone Internal Gains Nominal, ZONE SMALLOFFICE WHOLEBUILDING - SM OFFICE C END_B - STORY GROUND,20.90,1.1,18.581,5.382E-002,19.483,10.764,0.000,0.000,0.000,0.000,30.247,No
! <People Internal Gains Nominal>,Name,Schedule Name,Zone Name,Zone Floor Area {m2},# Zone Occupants,Number of People {},People/Floor Area {person/m2},Floor Area per person {m2/person},Fraction Radiant,Fraction Convected,Sensible Fraction Calculation,Activity level,ASHRAE 55 Warnings,Carbon Dioxide Generation Rate,Nominal Minimum Number of People,Nominal Maximum Number of People
 People Internal Gains Nominal, ZONE SMALLOFFICE WHOLEBUILDING - SM OFFICE A  - STORY GROUND SMALLOFFICE WHOLEBUILDING - SM OFFICE PEOPLE,SMALL OFFICE BLDG OCC,ZONE SMALLOFFICE WHOLEBUILDING - SM OFFICE A  - STORY GROUND,66.65,3.6,3.6,5.382E-002,18.581,0.300,0.700,AutoCalculate,SMALL OFFICE ACTIVITY,No,3.8200E-008,0,4
 People Internal Gains Nominal, ZONE SMALLOFFICE WHOLEBUILDING - SM OFFICE A END_A - STORY GROUND SMALLOFFICE WHOLEBUILDING - SM OFFICE PEOPLE,SMALL OFFICE BLDG OCC,ZONE SMALLOFFICE WHOLEBUILDING - SM OFFICE A END_A - STORY GROUND,20.90,1.1,1.1,5.382E-002,18.581,0.300,0.700,AutoCalculate,SMALL OFFICE ACTIVITY,No,3.8200E-008,0,1
 People Internal Gains Nominal, ZONE SMALLOFFICE WHOLEBUILDING - SM OFFICE A END_B - STORY GROUND SMALLOFFICE WHOLEBUILDING - SM OFFICE PEOPLE,SMALL OFFICE BLDG OCC,ZONE SMALLOFFICE WHOLEBUILDING - SM OFFICE A END_B - STORY GROUND,20.90,1.1,1.1,5.382E-002,18.581,0.300,0.700,AutoCalculate,SMALL OFFICE ACTIVITY,No,3.8200E-008,0,1
 People Internal Gains Nominal, ZONE SMALLOFFICE WHOLEBUILDING - SM OFFICE B  - STORY GROUND SMALLOFFICE WHOLEBUILDING - SM OFFICE PEOPLE,SMALL OFFICE BLDG OCC,ZONE SMALLOFFICE WHOLEBUILDING - SM OFFICE B  - STORY GROUND,97.24,5.2,5.2,5.382E-002,18.581,0.300,0.700,AutoCalculate,SMALL OFFICE ACTIVITY,No,3.8200E-008,0,5
 People Internal Gains Nominal, ZONE SMALLOFFICE WHOLEBUILDING - SM OFFICE B END_A - STORY GROUND SMALLOFFICE WHOLEBUILDING - SM OFFICE PEOPLE,SMALL OFFICE BLDG OCC,ZONE SMALLOFFICE WHOLEBUILDING - SM OFFICE B END_A - STORY GROUND,30.50,1.6,1.6,5.382E-002,18.581,0.300,0.700,AutoCalculate,SMALL OFFICE ACTIVITY,No,3.8200E-008,0,2
 People Internal Gains Nominal, ZONE SMALLOFFICE WHOLEBUILDING - SM OFFICE B END_B - STORY GROUND SMALLOFFICE WHOLEBUILDING - SM OFFICE PEOPLE,SMALL OFFICE BLDG OCC,ZONE SMALLOFFICE WHOLEBUILDING - SM OFFICE B END_B - STORY GROUND,30.50,1.6,1.6,5.382E-002,18.581,0.300,0.700,AutoCalculate,SMALL OFFICE ACTIVITY,No,3.8200E-008,0,2
 People Internal Gains Nominal, ZONE SMALLOFFICE WHOLEBUILDING - SM OFFICE C  - STORY GROUND SMALLOFFICE WHOLEBUILDING - SM OFFICE PEOPLE,SMALL OFFICE BLDG OCC,ZONE SMALLOFFICE WHOLEBUILDING - SM OFFICE C  - STORY GROUND,66.65,3.6,3.6,5.382E-002,18.581,0.300,0.700,AutoCalculate,SMALL OFFICE ACTIVITY,No,3.8200E-008,0,4
 People Internal Gains Nominal, ZONE SMALLOFFICE WHOLEBUILDING - SM OFFICE C END_A - STORY GROUND SMALLOFFICE WHOLEBUILDING - SM OFFICE PEOPLE,SMALL OFFICE BLDG OCC,ZONE SMALLOFFICE WHOLEBUILDING - SM OFFICE C END_A - STORY GROUND,20.90,1.1,1.1,5.382E-002,18.581,0.300,0.700,AutoCalculate,SMALL OFFICE ACTIVITY,No,3.8200E-008,0,1
 People Internal Gains Nominal, ZONE SMALLOFFICE WHOLEBUILDING - SM OFFICE C END_B - STORY GROUND SMALLOFFICE WHOLEBUILDING - SM OFFICE PEOPLE,SMALL OFFICE BLDG OCC,ZONE SMALLOFFICE WHOLEBUILDING - SM OFFICE C END_B - STORY GROUND,20.90,1.1,1.1,5.382E-002,18.581,0.300,0.700,AutoCalculate,SMALL OFFICE ACTIVITY,No,3.8200E-008,0,1
! <Lights Internal Gains Nominal>,Name,Schedule Name,Zone Name,Zone Floor Area {m2},# Zone Occupants,Lighting Level {W},Lights/Floor Area {W/m2},Lights per person {W/person},Fraction Return Air,Fraction Radiant,Fraction Short Wave,Fraction Convected,Fraction Replaceable,End-Use Category,Nominal Minimum Lighting Level {W},Nominal Maximum Lighting Level {W}
 Lights Internal Gains Nominal, ZONE SMALLOFFICE WHOLEBUILDING - SM OFFICE A  - STORY GROUND SMALLOFFICE WHOLEBUILDING - SM OFFICE LIGHTS,OFFICE BLDG LIGHT,ZONE SMALLOFFICE WHOLEBUILDING - SM OFFICE A  - STORY GROUND,66.65,3.6,1298.496,19.483,362.000,0.000,0.700,0.200,0.100,0.000,General,0.000,1298.496
 Lights Internal Gains Nominal, ZONE SMALLOFFICE WHOLEBUILDING - SM OFFICE A END_A - STORY GROUND SMALLOFFICE WHOLEBUILDING - SM OFFICE LIGHTS,OFFICE BLDG LIGHT,ZONE SMALLOFFICE WHOLEBUILDING - SM OFFICE A END_A - STORY GROUND,20.90,1.1,407.250,19.483,362.000,0.000,0.700,0.200,0.100,0.000,General,0.000,407.250
 Lights Internal Gains Nominal, ZONE SMALLOFFICE WHOLEBUILDING - SM OFFICE A END_B - STORY GROUND SMALLOFFICE WHOLEBUILDING - SM OFFICE LIGHTS,OFFICE BLDG LIGHT,ZONE SMALLOFFICE WHOLEBUILDING - SM OFFICE A END_B - STORY GROUND,20.90,1.1,407.250,19.483,362.000,0.000,0.700,0.200,0.100,0.000,General,0.000,407.250
 Lights Internal Gains Nominal, ZONE SMALLOFFICE WHOLEBUILDING - SM OFFICE B  - STORY GROUND SMALLOFFICE WHOLEBUILDING - SM OFFICE LIGHTS,OFFICE BLDG LIGHT,ZONE SMALLOFFICE WHOLEBUILDING - SM OFFICE B  - STORY GROUND,97.24,5.2,1894.461,19.483,362.000,0.000,0.700,0.200,0.100,0.000,General,0.000,1894.461
 Lights Internal Gains Nominal, ZONE SMALLOFFICE WHOLEBUILDING - SM OFFICE B END_A - STORY GROUND SMALLOFFICE WHOLEBUILDING - SM OFFICE LIGHTS,OFFICE BLDG LIGHT,ZONE SMALLOFFICE WHOLEBUILDING - SM OFFICE B END_A - STORY GROUND,30.50,1.6,594.164,19.483,362.000,0.000,0.700,0.200,0.100,0.000,General,0.000,594.164
 Lights Internal Gains Nominal, ZONE SMALLOFFICE WHOLEBUILDING - SM OFFICE B END_B - STORY GROUND SMALLOFFICE WHOLEBUILDING - SM OFFICE LIGHTS,OFFICE BLDG LIGHT,ZONE SMALLOFFICE WHOLEBUILDING - SM OFFICE B END_B - STORY GROUND,30.50,1.6,594.164,19.483,362.000,0.000,0.700,0.200,0.100,0.000,General,0.000,594.164
 Lights Internal Gains Nominal, ZONE SMALLOFFICE WHOLEBUILDING - SM OFFICE C  - STORY GROUND SMALLOFFICE WHOLEBUILDING - SM OFFICE LIGHTS,OFFICE BLDG LIGHT,ZONE SMALLOFFICE WHOLEBUILDING - SM OFFICE C  - STORY GROUND,66.65,3.6,1298.496,19.483,362.000,0.000,0.700,0.200,0.100,0.000,General,0.000,1298.496
 Lights Internal Gains Nominal, ZONE SMALLOFFICE WHOLEBUILDING - SM OFFICE C END_A - STORY GROUND SMALLOFFICE WHOLEBUILDING - SM OFFICE LIGHTS,OFFICE BLDG LIGHT,ZONE SMALLOFFICE WHOLEBUILDING - SM OFFICE C END_A - STORY GROUND,20.90,1.1,407.250,19.483,362.000,0.000,0.700,0.200,0.100,0.000,General,0.000,407.250
 Lights Internal Gains Nominal, ZONE SMALLOFFICE WHOLEBUILDING - SM OFFICE C END_B - STORY GROUND SMALLOFFICE WHOLEBUILDING - SM OFFICE LIGHTS,OFFICE BLDG LIGHT,ZONE SMALLOFFICE WHOLEBUILDING - SM OFFICE C END_B - STORY GROUND,20.90,1.1,407.250,19.483,362.000,0.000,0.700,0.200,0.100,0.000,General,0.000,407.250
! <ElectricEquipment Internal Gains Nominal>,Name,Schedule Name,Zone Name,Zone Floor Area {m2},# Zone Occupants,Equipment Level {W},Equipment/Floor Area {W/m2},Equipment per person {W/person},Fraction Latent,Fraction Radiant,Fraction Lost,Fraction Convected,End-Use SubCategory,Nominal Minimum Equipment Level {W},Nominal Maximum Equipment Level {W}
 ElectricEquipment Internal Gains Nominal, ZONE SMALLOFFICE WHOLEBUILDING - SM OFFICE A  - STORY GROUND SMALLOFFICE WHOLEBUILDING - SM OFFICE ELEC EQUIP,SMALL OFFICE BLDG EQUIP,ZONE SMALLOFFICE WHOLEBUILDING - SM OFFICE A  - STORY GROUND,66.65,3.6,717.401,10.764,200.000,0.000,0.500,0.000,0.500,General,0.000,717.401
 ElectricEquipment Internal Gains Nominal, ZONE SMALLOFFICE WHOLEBUILDING - SM OFFICE A END_A - STORY GROUND SMALLOFFICE WHOLEBUILDING - SM OFFICE ELEC EQUIP,SMALL OFFICE BLDG EQUIP,ZONE SMALLOFFICE WHOLEBUILDING - SM OFFICE A END_A - STORY GROUND,20.90,1.1,225.000,10.764,200.000,0.000,0.500,0.000,0.500,General,0.000,225.000
 ElectricEquipment Internal Gains Nominal, ZONE SMALLOFFICE WHOLEBUILDING - SM OFFICE A END_B - STORY GROUND SMALLOFFICE WHOLEBUILDING - SM OFFICE ELEC EQUIP,SMALL OFFICE BLDG EQUIP,ZONE SMALLOFFICE WHOLEBUILDING - SM OFFICE A END_B - STORY GROUND,20.90,1.1,225.000,10.764,200.000,0.000,0.500,0.000,0.500,General,0.000,225.000
 ElectricEquipment Internal Gains Nominal, ZONE SMALLOFFICE WHOLEBUILDING - SM OFFICE B  - STORY GROUND SMALLOFFICE WHOLEBUILDING - SM OFFICE ELEC EQUIP,SMALL OFFICE BLDG EQUIP,ZONE SMALLOFFICE WHOLEBUILDING - SM OFFICE B  - STORY GROUND,97.24,5.2,1046.663,10.764,200.000,0.000,0.500,0.000,0.500,General,0.000,1046.663
 ElectricEquipment Internal Gains Nominal, ZONE SMALLOFFICE WHOLEBUILDING - SM OFFICE B END_A - STORY GROUND SMALLOFFICE WHOLEBUILDING - SM OFFICE ELEC EQUIP,SMALL OFFICE BLDG EQUIP,ZONE SMALLOFFICE WHOLEBUILDING - SM OFFICE B END_A - STORY GROUND,30.50,1.6,328.267,10.764,200.000,0.000,0.500,0.000,0.500,General,0.000,328.267
 ElectricEquipment Internal Gains Nominal, ZONE SMALLOFFICE WHOLEBUILDING - SM OFFICE B END_B - STORY GROUND SMALLOFFICE WHOLEBUILDING - SM OFFICE ELEC EQUIP,SMALL OFFICE BLDG EQUIP,ZONE SMALLOFFICE WHOLEBUILDING - SM OFFICE B END_B - STORY GROUND,30.50,1.6,328.267,10.764,200.000,0.000,0.500,0.000,0.500,General,0.000,328.267
 ElectricEquipment Internal Gains Nominal, ZONE SMALLOFFICE WHOLEBUILDING - SM OFFICE C  - STORY GROUND SMALLOFFICE WHOLEBUILDING - SM OFFICE ELEC EQUIP,SMALL OFFICE BLDG EQUIP,ZONE SMALLOFFICE WHOLEBUILDING - SM OFFICE C  - STORY GROUND,66.65,3.6,717.401,10.764,200.000,0.000,0.500,0.000,0.500,General,0.000,717.401
 ElectricEquipment Internal Gains Nominal, ZONE SMALLOFFICE WHOLEBUILDING - SM OFFICE C END_A - STORY GROUND SMALLOFFICE WHOLEBUILDING - SM OFFICE ELEC EQUIP,SMALL OFFICE BLDG EQUIP,ZONE SMALLOFFICE WHOLEBUILDING - SM OFFICE C END_A - STORY GROUND,20.90,1.1,225.000,10.764,200.000,0.000,0.500,0.000,0.500,General,0.000,225.000
 ElectricEquipment Internal Gains Nominal, ZONE SMALLOFFICE WHOLEBUILDING - SM OFFICE C END_B - STORY GROUND SMALLOFFICE WHOLEBUILDING - SM OFFICE ELEC EQUIP,SMALL OFFICE BLDG EQUIP,ZONE SMALLOFFICE WHOLEBUILDING - SM OFFICE C END_B - STORY GROUND,20.90,1.1,225.000,10.764,200.000,0.000,0.500,0.000,0.500,General,0.000,225.000
! <Shadowing/Sun Position Calculations Annual Simulations>, Shading Calculation Method, Shading Calculation Update Frequency Method, Shading Calculation Update Frequency {days}, Maximum Figures in Shadow Overlap Calculations {}, Polygon Clipping Algorithm, Pixel Counting Resolution, Sky Diffuse Modeling Algorithm, Output External Shading Calculation Results, Disable Self-Shading Within Shading Zone Groups, Disable Self-Shading From Shading Zone Groups to Other Zones
Shadowing/Sun Position Calculations Annual Simulations,PolygonClipping,Periodic,20,15000,SutherlandHodgman,512,SimpleSkyDiffuseModeling,No,No,No
! <Water Heater Information>,Type,Name,Volume {m3},Maximum Capacity {W},Standard Rated Recovery Efficiency, Standard Rated Energy Factor
! <ZoneInfiltration Airflow Stats Nominal>,Name,Schedule Name,Zone Name, Zone Floor Area {m2}, # Zone Occupants,Design Volume Flow Rate {m3/s},Volume Flow Rate/Floor Area {m3/s-m2},Volume Flow Rate/Exterior Surface Area {m3/s-m2},ACH - Air Changes per Hour,Equation A - Constant Term Coefficient {},Equation B - Temperature Term Coefficient {1/C},Equation C - Velocity Term Coefficient {s/m}, Equation D - Velocity Squared Term Coefficient {s2/m2}
 ZoneInfiltration Airflow Stats Nominal, SMALLOFFICE WHOLEBUILDING - SM OFFICE A  - STORY GROUND INFILTRATION,ALWAYS ON DISCRETE,ZONE SMALLOFFICE WHOLEBUILDING - SM OFFICE A  - STORY GROUND,66.65,3.6,4.555E-002,6.835E-004,4.101E-004,0.807,1.000,0.000,0.000,0.000
 ZoneInfiltration Airflow Stats Nominal, SMALLOFFICE WHOLEBUILDING - SM OFFICE A END_A - STORY GROUND INFILTRATION,ALWAYS ON DISCRETE,ZONE SMALLOFFICE WHOLEBUILDING - SM OFFICE A END_A - STORY GROUND,20.90,1.1,2.857E-002,1.367E-003,5.858E-004,1.615,1.000,0.000,0.000,0.000
 ZoneInfiltration Airflow Stats Nominal, SMALLOFFICE WHOLEBUILDING - SM OFFICE A END_B - STORY GROUND INFILTRATION,ALWAYS ON DISCRETE,ZONE SMALLOFFICE WHOLEBUILDING - SM OFFICE A END_B - STORY GROUND,20.90,1.1,2.857E-002,1.367E-003,5.858E-004,1.615,1.000,0.000,0.000,0.000
 ZoneInfiltration Airflow Stats Nominal, SMALLOFFICE WHOLEBUILDING - SM OFFICE B END_A - STORY GROUND INFILTRATION,ALWAYS ON DISCRETE,ZONE SMALLOFFICE WHOLEBUILDING - SM OFFICE B END_A - STORY GROUND,30.50,1.6,2.084E-002,6.835E-004,4.101E-004,0.807,1.000,0.000,0.000,0.000
 ZoneInfiltration Airflow Stats Nominal, SMALLOFFICE WHOLEBUILDING - SM OFFICE B END_B - STORY GROUND INFILTRATION,ALWAYS ON DISCRETE,ZONE SMALLOFFICE WHOLEBUILDING - SM OFFICE B END_B - STORY GROUND,30.50,1.6,2.084E-002,6.835E-004,4.101E-004,0.807,1.000,0.000,0.000,0.000
 ZoneInfiltration Airflow Stats Nominal, SMALLOFFICE WHOLEBUILDING - SM OFFICE C  - STORY GROUND INFILTRATION,ALWAYS ON DISCRETE,ZONE SMALLOFFICE WHOLEBUILDING - SM OFFICE C  - STORY GROUND,66.65,3.6,4.555E-002,6.835E-004,4.101E-004,0.807,1.000,0.000,0.000,0.000
 ZoneInfiltration Airflow Stats Nominal, SMALLOFFICE WHOLEBUILDING - SM OFFICE C END_A - STORY GROUND INFILTRATION,ALWAYS ON DISCRETE,ZONE SMALLOFFICE WHOLEBUILDING - SM OFFICE C END_A - STORY GROUND,20.90,1.1,2.857E-002,1.367E-003,5.858E-004,1.615,1.000,0.000,0.000,0.000
 ZoneInfiltration Airflow Stats Nominal, SMALLOFFICE WHOLEBUILDING - SM OFFICE C END_B - STORY GROUND INFILTRATION,ALWAYS ON DISCRETE,ZONE SMALLOFFICE WHOLEBUILDING - SM OFFICE C END_B - STORY GROUND,20.90,1.1,2.857E-002,1.367E-003,5.858E-004,1.615,1.000,0.000,0.000,0.000
! <AirFlow Model>, Simple
 AirFlow Model, Simple
! <RoomAir Model>, Zone Name, Mixing/Mundt/UCSDDV/UCSDCV/UCSDUFI/UCSDUFE/User Defined
RoomAir Model,ZONE SMALLOFFICE WHOLEBUILDING - SM OFFICE A  - STORY GROUND,Mixing/Well-Stirred
RoomAir Model,ZONE SMALLOFFICE WHOLEBUILDING - SM OFFICE A END_A - STORY GROUND,Mixing/Well-Stirred
RoomAir Model,ZONE SMALLOFFICE WHOLEBUILDING - SM OFFICE A END_B - STORY GROUND,Mixing/Well-Stirred
RoomAir Model,ZONE SMALLOFFICE WHOLEBUILDING - SM OFFICE B  - STORY GROUND,Mixing/Well-Stirred
RoomAir Model,ZONE SMALLOFFICE WHOLEBUILDING - SM OFFICE B END_A - STORY GROUND,Mixing/Well-Stirred
RoomAir Model,ZONE SMALLOFFICE WHOLEBUILDING - SM OFFICE B END_B - STORY GROUND,Mixing/Well-Stirred
RoomAir Model,ZONE SMALLOFFICE WHOLEBUILDING - SM OFFICE C  - STORY GROUND,Mixing/Well-Stirred
RoomAir Model,ZONE SMALLOFFICE WHOLEBUILDING - SM OFFICE C END_A - STORY GROUND,Mixing/Well-Stirred
RoomAir Model,ZONE SMALLOFFICE WHOLEBUILDING - SM OFFICE C END_B - STORY GROUND,Mixing/Well-Stirred
! <AirflowNetwork Model:Control>, No Multizone or Distribution/Multizone with Distribution/Multizone without Distribution/Multizone with Distribution only during Fan Operation
AirflowNetwork Model:Control,NoMultizoneOrDistribution
! <Zone Volume Capacitance Multiplier>, Sensible Heat Capacity Multiplier, Moisture Capacity Multiplier, Carbon Dioxide Capacity Multiplier, Generic Contaminant Capacity Multiplier
Zone Volume Capacitance Multiplier,   1.000 ,   1.000,   1.000,   1.000
! <Load Timesteps in Zone Design Calculation Averaging Window>, Value
 Load Timesteps in Zone Design Calculation Averaging Window,    6
! <Heating Sizing Factor Information>, Sizing Factor ID, Value
 Heating Sizing Factor Information, Global,   1.2500    
 Heating Sizing Factor Information, Zone ZONE SMALLOFFICE WHOLEBUILDING - SM OFFICE A  - STORY GROUND,   1.2500    
 Heating Sizing Factor Information, Zone ZONE SMALLOFFICE WHOLEBUILDING - SM OFFICE A END_A - STORY GROUND,   1.2500    
 Heating Sizing Factor Information, Zone ZONE SMALLOFFICE WHOLEBUILDING - SM OFFICE A END_B - STORY GROUND,   1.2500    
 Heating Sizing Factor Information, Zone ZONE SMALLOFFICE WHOLEBUILDING - SM OFFICE B  - STORY GROUND,   1.2500    
 Heating Sizing Factor Information, Zone ZONE SMALLOFFICE WHOLEBUILDING - SM OFFICE B END_A - STORY GROUND,   1.2500    
 Heating Sizing Factor Information, Zone ZONE SMALLOFFICE WHOLEBUILDING - SM OFFICE B END_B - STORY GROUND,   1.2500    
 Heating Sizing Factor Information, Zone ZONE SMALLOFFICE WHOLEBUILDING - SM OFFICE C  - STORY GROUND,   1.2500    
 Heating Sizing Factor Information, Zone ZONE SMALLOFFICE WHOLEBUILDING - SM OFFICE C END_A - STORY GROUND,   1.2500    
 Heating Sizing Factor Information, Zone ZONE SMALLOFFICE WHOLEBUILDING - SM OFFICE C END_B - STORY GROUND,   1.2500    
! <Cooling Sizing Factor Information>, Sizing Factor ID, Value
 Cooling Sizing Factor Information, Global,   1.1500    
 Cooling Sizing Factor Information, Zone ZONE SMALLOFFICE WHOLEBUILDING - SM OFFICE A  - STORY GROUND,   1.1500    
 Cooling Sizing Factor Information, Zone ZONE SMALLOFFICE WHOLEBUILDING - SM OFFICE A END_A - STORY GROUND,   1.1500    
 Cooling Sizing Factor Information, Zone ZONE SMALLOFFICE WHOLEBUILDING - SM OFFICE A END_B - STORY GROUND,   1.1500    
 Cooling Sizing Factor Information, Zone ZONE SMALLOFFICE WHOLEBUILDING - SM OFFICE B  - STORY GROUND,   1.1500    
 Cooling Sizing Factor Information, Zone ZONE SMALLOFFICE WHOLEBUILDING - SM OFFICE B END_A - STORY GROUND,   1.1500    
 Cooling Sizing Factor Information, Zone ZONE SMALLOFFICE WHOLEBUILDING - SM OFFICE B END_B - STORY GROUND,   1.1500    
 Cooling Sizing Factor Information, Zone ZONE SMALLOFFICE WHOLEBUILDING - SM OFFICE C  - STORY GROUND,   1.1500    
 Cooling Sizing Factor Information, Zone ZONE SMALLOFFICE WHOLEBUILDING - SM OFFICE C END_A - STORY GROUND,   1.1500    
 Cooling Sizing Factor Information, Zone ZONE SMALLOFFICE WHOLEBUILDING - SM OFFICE C END_B - STORY GROUND,   1.1500    
! <Zone Sizing Information>, Zone Name, Load Type, Calc Des Load {W}, User Des Load {W}, Calc Des Air Flow Rate {m3/s}, User Des Air Flow Rate {m3/s}, Design Day Name, Date/Time of Peak, Temperature at Peak {C}, Humidity Ratio at Peak {kgWater/kgDryAir}, Floor Area {m2}, # Occupants, Calc Outdoor Air Flow Rate {m3/s}, Calc DOAS Heat Addition Rate {W}
 Zone Sizing Information, ZONE SMALLOFFICE WHOLEBUILDING - SM OFFICE A  - STORY GROUND, Cooling, 2952.64736, 3395.54447, 0.21413, 0.24625, CLIMATE ZONE 3 ANN CLG .4% CONDNS DB=>MWB, 8/21 13:30:00, 27.51500, 9.32312E-003, 66.64873, 3.58700, 3.38576E-002, 0.00000
 Zone Sizing Information, ZONE SMALLOFFICE WHOLEBUILDING - SM OFFICE A  - STORY GROUND, Heating, 2503.45516, 3129.31895, 7.03000E-002, 8.78750E-002, CLIMATE ZONE 3 ANN HTG 99.6% CONDNS DB, 1/21 24:00:00, 2.90000, 4.65595E-003, 66.64873, 3.58700, 3.38576E-002, 0.00000
 Zone Sizing Information, ZONE SMALLOFFICE WHOLEBUILDING - SM OFFICE A END_A - STORY GROUND, Cooling, 1326.21321, 1525.14519, 9.61821E-002, 0.11061, CLIMATE ZONE 3 ANN CLG .4% CONDNS DB=>MWB, 8/21 15:20:00, 27.55200, 9.32318E-003, 20.90318, 1.12500, 1.06188E-002, 0.00000
 Zone Sizing Information, ZONE SMALLOFFICE WHOLEBUILDING - SM OFFICE A END_A - STORY GROUND, Heating, 1306.52865, 1633.16081, 3.66851E-002, 4.58564E-002, CLIMATE ZONE 3 ANN HTG 99.6% CONDNS DB, 1/21 24:00:00, 2.90000, 4.65595E-003, 20.90318, 1.12500, 1.06188E-002, 0.00000
 Zone Sizing Information, ZONE SMALLOFFICE WHOLEBUILDING - SM OFFICE A END_B - STORY GROUND, Cooling, 1147.01430, 1319.06644, 8.31856E-002, 9.56635E-002, CLIMATE ZONE 3 ANN CLG .4% CONDNS DB=>MWB, 8/21 13:30:00, 27.51500, 9.32312E-003, 20.90318, 1.12500, 1.06188E-002, 0.00000
 Zone Sizing Information, ZONE SMALLOFFICE WHOLEBUILDING - SM OFFICE A END_B - STORY GROUND, Heating, 1305.79020, 1632.23776, 3.66644E-002, 4.58305E-002, CLIMATE ZONE 3 ANN HTG 99.6% CONDNS DB, 1/21 24:00:00, 2.90000, 4.65595E-003, 20.90318, 1.12500, 1.06188E-002, 0.00000
 Zone Sizing Information, ZONE SMALLOFFICE WHOLEBUILDING - SM OFFICE B  - STORY GROUND, Cooling, 2757.28498, 3170.87773, 0.19996, 0.22996, CLIMATE ZONE 3 ANN CLG .4% CONDNS DB=>MWB, 8/21 13:50:00, 27.63833, 9.32332E-003, 97.23822, 5.23332, 4.93970E-002, 0.00000
 Zone Sizing Information, ZONE SMALLOFFICE WHOLEBUILDING - SM OFFICE B  - STORY GROUND, Heating, 1378.31947, 1722.89934, 3.87115E-002, 4.93970E-002, CLIMATE ZONE 3 ANN HTG 99.6% CONDNS DB, 1/21 24:00:00, 2.90000, 4.65595E-003, 97.23822, 5.23332, 4.93970E-002, 0.00000
 Zone Sizing Information, ZONE SMALLOFFICE WHOLEBUILDING - SM OFFICE B END_A - STORY GROUND, Cooling, 1558.34502, 1792.09678, 0.11301, 0.12997, CLIMATE ZONE 3 ANN CLG .4% CONDNS DB=>MWB, 8/21 16:10:00, 27.15733, 9.32254E-003, 30.49703, 1.64134, 1.54925E-002, 0.00000
 Zone Sizing Information, ZONE SMALLOFFICE WHOLEBUILDING - SM OFFICE B END_A - STORY GROUND, Heating, 1179.77563, 1474.71953, 3.31297E-002, 4.14121E-002, CLIMATE ZONE 3 ANN HTG 99.6% CONDNS DB, 1/21 24:00:00, 2.90000, 4.65595E-003, 30.49703, 1.64134, 1.54925E-002, 0.00000
 Zone Sizing Information, ZONE SMALLOFFICE WHOLEBUILDING - SM OFFICE B END_B - STORY GROUND, Cooling, 1290.89167, 1484.52542, 9.36184E-002, 0.10766, CLIMATE ZONE 3 ANN CLG .4% CONDNS DB=>MWB, 8/21 10:30:00, 25.44300, 9.31979E-003, 30.49703, 1.64134, 1.54925E-002, 0.00000
 Zone Sizing Information, ZONE SMALLOFFICE WHOLEBUILDING - SM OFFICE B END_B - STORY GROUND, Heating, 1178.68784, 1473.35979, 3.30991E-002, 4.13739E-002, CLIMATE ZONE 3 ANN HTG 99.6% CONDNS DB, 1/21 24:00:00, 2.90000, 4.65595E-003, 30.49703, 1.64134, 1.54925E-002, 0.00000
 Zone Sizing Information, ZONE SMALLOFFICE WHOLEBUILDING - SM OFFICE C  - STORY GROUND, Cooling, 2276.74046, 2618.25153, 0.16512, 0.18988, CLIMATE ZONE 3 ANN CLG .4% CONDNS DB=>MWB, 8/21 14:00:00, 27.70000, 9.32342E-003, 66.64873, 3.58700, 3.38576E-002, 0.00000
 Zone Sizing Information, ZONE SMALLOFFICE WHOLEBUILDING - SM OFFICE C  - STORY GROUND, Heating, 2501.14341, 3126.42926, 7.02351E-002, 8.77939E-002, CLIMATE ZONE 3 ANN HTG 99.6% CONDNS DB, 1/21 24:00:00, 2.90000, 4.65595E-003, 66.64873, 3.58700, 3.38576E-002, 0.00000
 Zone Sizing Information, ZONE SMALLOFFICE WHOLEBUILDING - SM OFFICE C END_A - STORY GROUND, Cooling, 1184.01606, 1361.61847, 8.58693E-002, 9.87496E-002, CLIMATE ZONE 3 ANN CLG .4% CONDNS DB=>MWB, 8/21 16:00:00, 27.25600, 9.32270E-003, 20.90318, 1.12500, 1.06188E-002, 0.00000
 Zone Sizing Information, ZONE SMALLOFFICE WHOLEBUILDING - SM OFFICE C END_A - STORY GROUND, Heating, 1305.78881, 1632.23602, 3.66643E-002, 4.58304E-002, CLIMATE ZONE 3 ANN HTG 99.6% CONDNS DB, 1/21 24:00:00, 2.90000, 4.65595E-003, 20.90318, 1.12500, 1.06188E-002, 0.00000
 Zone Sizing Information, ZONE SMALLOFFICE WHOLEBUILDING - SM OFFICE C END_B - STORY GROUND, Cooling, 956.59396, 1100.08306, 6.93754E-002, 7.97817E-002, CLIMATE ZONE 3 ANN CLG .4% CONDNS DB=>MWB, 8/21 10:50:00, 25.81300, 9.32038E-003, 20.90318, 1.12500, 1.06188E-002, 0.00000
 Zone Sizing Information, ZONE SMALLOFFICE WHOLEBUILDING - SM OFFICE C END_B - STORY GROUND, Heating, 1305.05019, 1631.31274, 3.66436E-002, 4.58045E-002, CLIMATE ZONE 3 ANN HTG 99.6% CONDNS DB, 1/21 24:00:00, 2.90000, 4.65595E-003, 20.90318, 1.12500, 1.06188E-002, 0.00000
! <System Sizing Information>, System Name, Load Type, Peak Load Kind, User Design Capacity, Calc Des Air Flow Rate [m3/s], User Des Air Flow Rate [m3/s], Design Day Name, Date/Time of Peak
 System Sizing Information, ZONE SMALLOFFICE WHOLEBUILDING - SM OFFICE A  - STORY GROUND PSZ-AC, Cooling, Sensible, 3487.09, 0.24625, 0.24625, CLIMATE ZONE 3 ANN CLG .4% CONDNS DB=>MWB, 8/21 05:00:00
 System Sizing Information, ZONE SMALLOFFICE WHOLEBUILDING - SM OFFICE A  - STORY GROUND PSZ-AC, Heating, Sensible, 3824.97, 8.78750E-002, 8.78750E-002, CLIMATE ZONE 3 ANN HTG 99.6% CONDNS DB, 1/21 24:00:00
 System Sizing Information, ZONE SMALLOFFICE WHOLEBUILDING - SM OFFICE A END_A - STORY GROUND PSZ-AC, Cooling, Sensible, 1547.22, 0.11061, 0.11061, CLIMATE ZONE 3 ANN CLG .4% CONDNS DB=>MWB, 8/21 05:00:00
 System Sizing Information, ZONE SMALLOFFICE WHOLEBUILDING - SM OFFICE A END_A - STORY GROUND PSZ-AC, Heating, Sensible, 1841.81, 4.58564E-002, 4.58564E-002, CLIMATE ZONE 3 ANN HTG 99.6% CONDNS DB, 1/21 24:00:00
 System Sizing Information, ZONE SMALLOFFICE WHOLEBUILDING - SM OFFICE A END_B - STORY GROUND PSZ-AC, Cooling, Sensible, 1344.19, 9.56635E-002, 9.56635E-002, CLIMATE ZONE 3 ANN CLG .4% CONDNS DB=>MWB, 8/21 05:00:00
 System Sizing Information, ZONE SMALLOFFICE WHOLEBUILDING - SM OFFICE A END_B - STORY GROUND PSZ-AC, Heating, Sensible, 1840.90, 4.58305E-002, 4.58305E-002, CLIMATE ZONE 3 ANN HTG 99.6% CONDNS DB, 1/21 24:00:00
 System Sizing Information, ZONE SMALLOFFICE WHOLEBUILDING - SM OFFICE B  - STORY GROUND PSZ-AC, Cooling, Sensible, 3340.40, 0.22996, 0.22996, CLIMATE ZONE 3 ANN CLG .4% CONDNS DB=>MWB, 8/21 05:00:00
 System Sizing Information, ZONE SMALLOFFICE WHOLEBUILDING - SM OFFICE B  - STORY GROUND PSZ-AC, Heating, Sensible, 2814.89, 4.93970E-002, 4.93970E-002, CLIMATE ZONE 3 ANN HTG 99.6% CONDNS DB, 1/21 00:10:00
 System Sizing Information, ZONE SMALLOFFICE WHOLEBUILDING - SM OFFICE B END_A - STORY GROUND PSZ-AC, Cooling, Sensible, 1823.59, 0.12997, 0.12997, CLIMATE ZONE 3 ANN CLG .4% CONDNS DB=>MWB, 8/21 05:00:00
 System Sizing Information, ZONE SMALLOFFICE WHOLEBUILDING - SM OFFICE B END_A - STORY GROUND PSZ-AC, Heating, Sensible, 1792.41, 4.14121E-002, 4.14121E-002, CLIMATE ZONE 3 ANN HTG 99.6% CONDNS DB, 1/21 24:00:00
 System Sizing Information, ZONE SMALLOFFICE WHOLEBUILDING - SM OFFICE B END_B - STORY GROUND PSZ-AC, Cooling, Sensible, 1490.65, 0.10766, 0.10766, CLIMATE ZONE 3 ANN CLG .4% CONDNS DB=>MWB, 8/21 05:00:00
 System Sizing Information, ZONE SMALLOFFICE WHOLEBUILDING - SM OFFICE B END_B - STORY GROUND PSZ-AC, Heating, Sensible, 1791.07, 4.13739E-002, 4.13739E-002, CLIMATE ZONE 3 ANN HTG 99.6% CONDNS DB, 1/21 24:00:00
 System Sizing Information, ZONE SMALLOFFICE WHOLEBUILDING - SM OFFICE C  - STORY GROUND PSZ-AC, Cooling, Sensible, 2729.39, 0.18988, 0.18988, CLIMATE ZONE 3 ANN CLG .4% CONDNS DB=>MWB, 8/21 05:00:00
 System Sizing Information, ZONE SMALLOFFICE WHOLEBUILDING - SM OFFICE C  - STORY GROUND PSZ-AC, Heating, Sensible, 3822.12, 8.77939E-002, 8.77939E-002, CLIMATE ZONE 3 ANN HTG 99.6% CONDNS DB, 1/21 24:00:00
 System Sizing Information, ZONE SMALLOFFICE WHOLEBUILDING - SM OFFICE C END_A - STORY GROUND PSZ-AC, Cooling, Sensible, 1382.42, 9.87496E-002, 9.87496E-002, CLIMATE ZONE 3 ANN CLG .4% CONDNS DB=>MWB, 8/21 05:00:00
 System Sizing Information, ZONE SMALLOFFICE WHOLEBUILDING - SM OFFICE C END_A - STORY GROUND PSZ-AC, Heating, Sensible, 1840.90, 4.58304E-002, 4.58304E-002, CLIMATE ZONE 3 ANN HTG 99.6% CONDNS DB, 1/21 24:00:00
 System Sizing Information, ZONE SMALLOFFICE WHOLEBUILDING - SM OFFICE C END_B - STORY GROUND PSZ-AC, Cooling, Sensible, 1108.48, 7.97817E-002, 7.97817E-002, CLIMATE ZONE 3 ANN CLG .4% CONDNS DB=>MWB, 8/21 05:00:00
 System Sizing Information, ZONE SMALLOFFICE WHOLEBUILDING - SM OFFICE C END_B - STORY GROUND PSZ-AC, Heating, Sensible, 1839.99, 4.58045E-002, 4.58045E-002, CLIMATE ZONE 3 ANN HTG 99.6% CONDNS DB, 1/21 24:00:00
! <Component Sizing Information>, Component Type, Component Name, Input Field Description, Value
 Component Sizing Information, AirTerminal:SingleDuct:ConstantVolume:NoReheat, ZONE SMALLOFFICE WHOLEBUILDING - SM OFFICE A  - STORY GROUND PSZ-AC DIFFUSER, Design Size Maximum Air Flow Rate [m3/s], 0.24625
 Component Sizing Information, AirTerminal:SingleDuct:ConstantVolume:NoReheat, ZONE SMALLOFFICE WHOLEBUILDING - SM OFFICE A END_A - STORY GROUND PSZ-AC DIFFUSER, Design Size Maximum Air Flow Rate [m3/s], 0.11061
 Component Sizing Information, AirTerminal:SingleDuct:ConstantVolume:NoReheat, ZONE SMALLOFFICE WHOLEBUILDING - SM OFFICE A END_B - STORY GROUND PSZ-AC DIFFUSER, Design Size Maximum Air Flow Rate [m3/s], 9.56635E-002
 Component Sizing Information, AirTerminal:SingleDuct:ConstantVolume:NoReheat, ZONE SMALLOFFICE WHOLEBUILDING - SM OFFICE B  - STORY GROUND PSZ-AC DIFFUSER, Design Size Maximum Air Flow Rate [m3/s], 0.22996
 Component Sizing Information, AirTerminal:SingleDuct:ConstantVolume:NoReheat, ZONE SMALLOFFICE WHOLEBUILDING - SM OFFICE B END_A - STORY GROUND PSZ-AC DIFFUSER, Design Size Maximum Air Flow Rate [m3/s], 0.12997
 Component Sizing Information, AirTerminal:SingleDuct:ConstantVolume:NoReheat, ZONE SMALLOFFICE WHOLEBUILDING - SM OFFICE B END_B - STORY GROUND PSZ-AC DIFFUSER, Design Size Maximum Air Flow Rate [m3/s], 0.10766
 Component Sizing Information, AirTerminal:SingleDuct:ConstantVolume:NoReheat, ZONE SMALLOFFICE WHOLEBUILDING - SM OFFICE C  - STORY GROUND PSZ-AC DIFFUSER, Design Size Maximum Air Flow Rate [m3/s], 0.18988
 Component Sizing Information, AirTerminal:SingleDuct:ConstantVolume:NoReheat, ZONE SMALLOFFICE WHOLEBUILDING - SM OFFICE C END_A - STORY GROUND PSZ-AC DIFFUSER, Design Size Maximum Air Flow Rate [m3/s], 9.87496E-002
 Component Sizing Information, AirTerminal:SingleDuct:ConstantVolume:NoReheat, ZONE SMALLOFFICE WHOLEBUILDING - SM OFFICE C END_B - STORY GROUND PSZ-AC DIFFUSER, Design Size Maximum Air Flow Rate [m3/s], 7.97817E-002
 Component Sizing Information, AirLoopHVAC, ZONE SMALLOFFICE WHOLEBUILDING - SM OFFICE A  - STORY GROUND PSZ-AC, Sum of Air Terminal Maximum Heating Flow Rates [m3/s], 0.24625
 Component Sizing Information, AirLoopHVAC, ZONE SMALLOFFICE WHOLEBUILDING - SM OFFICE A  - STORY GROUND PSZ-AC, Sum of Air Terminal Minimum Heating Flow Rates [m3/s], 0.24625
 Component Sizing Information, AirLoopHVAC, ZONE SMALLOFFICE WHOLEBUILDING - SM OFFICE A  - STORY GROUND PSZ-AC, Sum of Air Terminal Maximum Flow Rates [m3/s], 0.24625
 Component Sizing Information, AirLoopHVAC, ZONE SMALLOFFICE WHOLEBUILDING - SM OFFICE A  - STORY GROUND PSZ-AC, Adjusted Heating Design Air Flow Rate [m3/s], 0.24625
 Component Sizing Information, AirLoopHVAC, ZONE SMALLOFFICE WHOLEBUILDING - SM OFFICE A  - STORY GROUND PSZ-AC, Adjusted Cooling Design Air Flow Rate [m3/s], 0.24625
 Component Sizing Information, AirLoopHVAC, ZONE SMALLOFFICE WHOLEBUILDING - SM OFFICE A  - STORY GROUND PSZ-AC, Adjusted Main Design Air Flow Rate [m3/s], 0.24625
 Component Sizing Information, AirLoopHVAC, ZONE SMALLOFFICE WHOLEBUILDING - SM OFFICE A  - STORY GROUND PSZ-AC, User Heating Air Flow Ratio [], 1.00000
 Component Sizing Information, AirLoopHVAC, ZONE SMALLOFFICE WHOLEBUILDING - SM OFFICE A  - STORY GROUND PSZ-AC, Calculated Heating Air Flow Ratio [], 1.00000
 Component Sizing Information, AirLoopHVAC, ZONE SMALLOFFICE WHOLEBUILDING - SM OFFICE A END_A - STORY GROUND PSZ-AC, Sum of Air Terminal Maximum Heating Flow Rates [m3/s], 0.11061
 Component Sizing Information, AirLoopHVAC, ZONE SMALLOFFICE WHOLEBUILDING - SM OFFICE A END_A - STORY GROUND PSZ-AC, Sum of Air Terminal Minimum Heating Flow Rates [m3/s], 0.11061
 Component Sizing Information, AirLoopHVAC, ZONE SMALLOFFICE WHOLEBUILDING - SM OFFICE A END_A - STORY GROUND PSZ-AC, Sum of Air Terminal Maximum Flow Rates [m3/s], 0.11061
 Component Sizing Information, AirLoopHVAC, ZONE SMALLOFFICE WHOLEBUILDING - SM OFFICE A END_A - STORY GROUND PSZ-AC, Adjusted Heating Design Air Flow Rate [m3/s], 0.11061
 Component Sizing Information, AirLoopHVAC, ZONE SMALLOFFICE WHOLEBUILDING - SM OFFICE A END_A - STORY GROUND PSZ-AC, Adjusted Cooling Design Air Flow Rate [m3/s], 0.11061
 Component Sizing Information, AirLoopHVAC, ZONE SMALLOFFICE WHOLEBUILDING - SM OFFICE A END_A - STORY GROUND PSZ-AC, Adjusted Main Design Air Flow Rate [m3/s], 0.11061
 Component Sizing Information, AirLoopHVAC, ZONE SMALLOFFICE WHOLEBUILDING - SM OFFICE A END_A - STORY GROUND PSZ-AC, User Heating Air Flow Ratio [], 1.00000
 Component Sizing Information, AirLoopHVAC, ZONE SMALLOFFICE WHOLEBUILDING - SM OFFICE A END_A - STORY GROUND PSZ-AC, Calculated Heating Air Flow Ratio [], 1.00000
 Component Sizing Information, AirLoopHVAC, ZONE SMALLOFFICE WHOLEBUILDING - SM OFFICE A END_B - STORY GROUND PSZ-AC, Sum of Air Terminal Maximum Heating Flow Rates [m3/s], 9.56635E-002
 Component Sizing Information, AirLoopHVAC, ZONE SMALLOFFICE WHOLEBUILDING - SM OFFICE A END_B - STORY GROUND PSZ-AC, Sum of Air Terminal Minimum Heating Flow Rates [m3/s], 9.56635E-002
 Component Sizing Information, AirLoopHVAC, ZONE SMALLOFFICE WHOLEBUILDING - SM OFFICE A END_B - STORY GROUND PSZ-AC, Sum of Air Terminal Maximum Flow Rates [m3/s], 9.56635E-002
 Component Sizing Information, AirLoopHVAC, ZONE SMALLOFFICE WHOLEBUILDING - SM OFFICE A END_B - STORY GROUND PSZ-AC, Adjusted Heating Design Air Flow Rate [m3/s], 9.56635E-002
 Component Sizing Information, AirLoopHVAC, ZONE SMALLOFFICE WHOLEBUILDING - SM OFFICE A END_B - STORY GROUND PSZ-AC, Adjusted Cooling Design Air Flow Rate [m3/s], 9.56635E-002
 Component Sizing Information, AirLoopHVAC, ZONE SMALLOFFICE WHOLEBUILDING - SM OFFICE A END_B - STORY GROUND PSZ-AC, Adjusted Main Design Air Flow Rate [m3/s], 9.56635E-002
 Component Sizing Information, AirLoopHVAC, ZONE SMALLOFFICE WHOLEBUILDING - SM OFFICE A END_B - STORY GROUND PSZ-AC, User Heating Air Flow Ratio [], 1.00000
 Component Sizing Information, AirLoopHVAC, ZONE SMALLOFFICE WHOLEBUILDING - SM OFFICE A END_B - STORY GROUND PSZ-AC, Calculated Heating Air Flow Ratio [], 1.00000
 Component Sizing Information, AirLoopHVAC, ZONE SMALLOFFICE WHOLEBUILDING - SM OFFICE B  - STORY GROUND PSZ-AC, Sum of Air Terminal Maximum Heating Flow Rates [m3/s], 0.22996
 Component Sizing Information, AirLoopHVAC, ZONE SMALLOFFICE WHOLEBUILDING - SM OFFICE B  - STORY GROUND PSZ-AC, Sum of Air Terminal Minimum Heating Flow Rates [m3/s], 0.22996
 Component Sizing Information, AirLoopHVAC, ZONE SMALLOFFICE WHOLEBUILDING - SM OFFICE B  - STORY GROUND PSZ-AC, Sum of Air Terminal Maximum Flow Rates [m3/s], 0.22996
 Component Sizing Information, AirLoopHVAC, ZONE SMALLOFFICE WHOLEBUILDING - SM OFFICE B  - STORY GROUND PSZ-AC, Adjusted Heating Design Air Flow Rate [m3/s], 0.22996
 Component Sizing Information, AirLoopHVAC, ZONE SMALLOFFICE WHOLEBUILDING - SM OFFICE B  - STORY GROUND PSZ-AC, Adjusted Cooling Design Air Flow Rate [m3/s], 0.22996
 Component Sizing Information, AirLoopHVAC, ZONE SMALLOFFICE WHOLEBUILDING - SM OFFICE B  - STORY GROUND PSZ-AC, Adjusted Main Design Air Flow Rate [m3/s], 0.22996
 Component Sizing Information, AirLoopHVAC, ZONE SMALLOFFICE WHOLEBUILDING - SM OFFICE B  - STORY GROUND PSZ-AC, User Heating Air Flow Ratio [], 1.00000
 Component Sizing Information, AirLoopHVAC, ZONE SMALLOFFICE WHOLEBUILDING - SM OFFICE B  - STORY GROUND PSZ-AC, Calculated Heating Air Flow Ratio [], 1.00000
 Component Sizing Information, AirLoopHVAC, ZONE SMALLOFFICE WHOLEBUILDING - SM OFFICE B END_A - STORY GROUND PSZ-AC, Sum of Air Terminal Maximum Heating Flow Rates [m3/s], 0.12997
 Component Sizing Information, AirLoopHVAC, ZONE SMALLOFFICE WHOLEBUILDING - SM OFFICE B END_A - STORY GROUND PSZ-AC, Sum of Air Terminal Minimum Heating Flow Rates [m3/s], 0.12997
 Component Sizing Information, AirLoopHVAC, ZONE SMALLOFFICE WHOLEBUILDING - SM OFFICE B END_A - STORY GROUND PSZ-AC, Sum of Air Terminal Maximum Flow Rates [m3/s], 0.12997
 Component Sizing Information, AirLoopHVAC, ZONE SMALLOFFICE WHOLEBUILDING - SM OFFICE B END_A - STORY GROUND PSZ-AC, Adjusted Heating Design Air Flow Rate [m3/s], 0.12997
 Component Sizing Information, AirLoopHVAC, ZONE SMALLOFFICE WHOLEBUILDING - SM OFFICE B END_A - STORY GROUND PSZ-AC, Adjusted Cooling Design Air Flow Rate [m3/s], 0.12997
 Component Sizing Information, AirLoopHVAC, ZONE SMALLOFFICE WHOLEBUILDING - SM OFFICE B END_A - STORY GROUND PSZ-AC, Adjusted Main Design Air Flow Rate [m3/s], 0.12997
 Component Sizing Information, AirLoopHVAC, ZONE SMALLOFFICE WHOLEBUILDING - SM OFFICE B END_A - STORY GROUND PSZ-AC, User Heating Air Flow Ratio [], 1.00000
 Component Sizing Information, AirLoopHVAC, ZONE SMALLOFFICE WHOLEBUILDING - SM OFFICE B END_A - STORY GROUND PSZ-AC, Calculated Heating Air Flow Ratio [], 1.00000
 Component Sizing Information, AirLoopHVAC, ZONE SMALLOFFICE WHOLEBUILDING - SM OFFICE B END_B - STORY GROUND PSZ-AC, Sum of Air Terminal Maximum Heating Flow Rates [m3/s], 0.10766
 Component Sizing Information, AirLoopHVAC, ZONE SMALLOFFICE WHOLEBUILDING - SM OFFICE B END_B - STORY GROUND PSZ-AC, Sum of Air Terminal Minimum Heating Flow Rates [m3/s], 0.10766
 Component Sizing Information, AirLoopHVAC, ZONE SMALLOFFICE WHOLEBUILDING - SM OFFICE B END_B - STORY GROUND PSZ-AC, Sum of Air Terminal Maximum Flow Rates [m3/s], 0.10766
 Component Sizing Information, AirLoopHVAC, ZONE SMALLOFFICE WHOLEBUILDING - SM OFFICE B END_B - STORY GROUND PSZ-AC, Adjusted Heating Design Air Flow Rate [m3/s], 0.10766
 Component Sizing Information, AirLoopHVAC, ZONE SMALLOFFICE WHOLEBUILDING - SM OFFICE B END_B - STORY GROUND PSZ-AC, Adjusted Cooling Design Air Flow Rate [m3/s], 0.10766
 Component Sizing Information, AirLoopHVAC, ZONE SMALLOFFICE WHOLEBUILDING - SM OFFICE B END_B - STORY GROUND PSZ-AC, Adjusted Main Design Air Flow Rate [m3/s], 0.10766
 Component Sizing Information, AirLoopHVAC, ZONE SMALLOFFICE WHOLEBUILDING - SM OFFICE B END_B - STORY GROUND PSZ-AC, User Heating Air Flow Ratio [], 1.00000
 Component Sizing Information, AirLoopHVAC, ZONE SMALLOFFICE WHOLEBUILDING - SM OFFICE B END_B - STORY GROUND PSZ-AC, Calculated Heating Air Flow Ratio [], 1.00000
 Component Sizing Information, AirLoopHVAC, ZONE SMALLOFFICE WHOLEBUILDING - SM OFFICE C  - STORY GROUND PSZ-AC, Sum of Air Terminal Maximum Heating Flow Rates [m3/s], 0.18988
 Component Sizing Information, AirLoopHVAC, ZONE SMALLOFFICE WHOLEBUILDING - SM OFFICE C  - STORY GROUND PSZ-AC, Sum of Air Terminal Minimum Heating Flow Rates [m3/s], 0.18988
 Component Sizing Information, AirLoopHVAC, ZONE SMALLOFFICE WHOLEBUILDING - SM OFFICE C  - STORY GROUND PSZ-AC, Sum of Air Terminal Maximum Flow Rates [m3/s], 0.18988
 Component Sizing Information, AirLoopHVAC, ZONE SMALLOFFICE WHOLEBUILDING - SM OFFICE C  - STORY GROUND PSZ-AC, Adjusted Heating Design Air Flow Rate [m3/s], 0.18988
 Component Sizing Information, AirLoopHVAC, ZONE SMALLOFFICE WHOLEBUILDING - SM OFFICE C  - STORY GROUND PSZ-AC, Adjusted Cooling Design Air Flow Rate [m3/s], 0.18988
 Component Sizing Information, AirLoopHVAC, ZONE SMALLOFFICE WHOLEBUILDING - SM OFFICE C  - STORY GROUND PSZ-AC, Adjusted Main Design Air Flow Rate [m3/s], 0.18988
 Component Sizing Information, AirLoopHVAC, ZONE SMALLOFFICE WHOLEBUILDING - SM OFFICE C  - STORY GROUND PSZ-AC, User Heating Air Flow Ratio [], 1.00000
 Component Sizing Information, AirLoopHVAC, ZONE SMALLOFFICE WHOLEBUILDING - SM OFFICE C  - STORY GROUND PSZ-AC, Calculated Heating Air Flow Ratio [], 1.00000
 Component Sizing Information, AirLoopHVAC, ZONE SMALLOFFICE WHOLEBUILDING - SM OFFICE C END_A - STORY GROUND PSZ-AC, Sum of Air Terminal Maximum Heating Flow Rates [m3/s], 9.87496E-002
 Component Sizing Information, AirLoopHVAC, ZONE SMALLOFFICE WHOLEBUILDING - SM OFFICE C END_A - STORY GROUND PSZ-AC, Sum of Air Terminal Minimum Heating Flow Rates [m3/s], 9.87496E-002
 Component Sizing Information, AirLoopHVAC, ZONE SMALLOFFICE WHOLEBUILDING - SM OFFICE C END_A - STORY GROUND PSZ-AC, Sum of Air Terminal Maximum Flow Rates [m3/s], 9.87496E-002
 Component Sizing Information, AirLoopHVAC, ZONE SMALLOFFICE WHOLEBUILDING - SM OFFICE C END_A - STORY GROUND PSZ-AC, Adjusted Heating Design Air Flow Rate [m3/s], 9.87496E-002
 Component Sizing Information, AirLoopHVAC, ZONE SMALLOFFICE WHOLEBUILDING - SM OFFICE C END_A - STORY GROUND PSZ-AC, Adjusted Cooling Design Air Flow Rate [m3/s], 9.87496E-002
 Component Sizing Information, AirLoopHVAC, ZONE SMALLOFFICE WHOLEBUILDING - SM OFFICE C END_A - STORY GROUND PSZ-AC, Adjusted Main Design Air Flow Rate [m3/s], 9.87496E-002
 Component Sizing Information, AirLoopHVAC, ZONE SMALLOFFICE WHOLEBUILDING - SM OFFICE C END_A - STORY GROUND PSZ-AC, User Heating Air Flow Ratio [], 1.00000
 Component Sizing Information, AirLoopHVAC, ZONE SMALLOFFICE WHOLEBUILDING - SM OFFICE C END_A - STORY GROUND PSZ-AC, Calculated Heating Air Flow Ratio [], 1.00000
 Component Sizing Information, AirLoopHVAC, ZONE SMALLOFFICE WHOLEBUILDING - SM OFFICE C END_B - STORY GROUND PSZ-AC, Sum of Air Terminal Maximum Heating Flow Rates [m3/s], 7.97817E-002
 Component Sizing Information, AirLoopHVAC, ZONE SMALLOFFICE WHOLEBUILDING - SM OFFICE C END_B - STORY GROUND PSZ-AC, Sum of Air Terminal Minimum Heating Flow Rates [m3/s], 7.97817E-002
 Component Sizing Information, AirLoopHVAC, ZONE SMALLOFFICE WHOLEBUILDING - SM OFFICE C END_B - STORY GROUND PSZ-AC, Sum of Air Terminal Maximum Flow Rates [m3/s], 7.97817E-002
 Component Sizing Information, AirLoopHVAC, ZONE SMALLOFFICE WHOLEBUILDING - SM OFFICE C END_B - STORY GROUND PSZ-AC, Adjusted Heating Design Air Flow Rate [m3/s], 7.97817E-002
 Component Sizing Information, AirLoopHVAC, ZONE SMALLOFFICE WHOLEBUILDING - SM OFFICE C END_B - STORY GROUND PSZ-AC, Adjusted Cooling Design Air Flow Rate [m3/s], 7.97817E-002
 Component Sizing Information, AirLoopHVAC, ZONE SMALLOFFICE WHOLEBUILDING - SM OFFICE C END_B - STORY GROUND PSZ-AC, Adjusted Main Design Air Flow Rate [m3/s], 7.97817E-002
 Component Sizing Information, AirLoopHVAC, ZONE SMALLOFFICE WHOLEBUILDING - SM OFFICE C END_B - STORY GROUND PSZ-AC, User Heating Air Flow Ratio [], 1.00000
 Component Sizing Information, AirLoopHVAC, ZONE SMALLOFFICE WHOLEBUILDING - SM OFFICE C END_B - STORY GROUND PSZ-AC, Calculated Heating Air Flow Ratio [], 1.00000
 Component Sizing Information, AirLoopHVAC, ZONE SMALLOFFICE WHOLEBUILDING - SM OFFICE A  - STORY GROUND PSZ-AC, Design Supply Air Flow Rate [m3/s], 0.24625
 Component Sizing Information, AirLoopHVAC, ZONE SMALLOFFICE WHOLEBUILDING - SM OFFICE A END_A - STORY GROUND PSZ-AC, Design Supply Air Flow Rate [m3/s], 0.11061
 Component Sizing Information, AirLoopHVAC, ZONE SMALLOFFICE WHOLEBUILDING - SM OFFICE A END_B - STORY GROUND PSZ-AC, Design Supply Air Flow Rate [m3/s], 9.56635E-002
 Component Sizing Information, AirLoopHVAC, ZONE SMALLOFFICE WHOLEBUILDING - SM OFFICE B  - STORY GROUND PSZ-AC, Design Supply Air Flow Rate [m3/s], 0.22996
 Component Sizing Information, AirLoopHVAC, ZONE SMALLOFFICE WHOLEBUILDING - SM OFFICE B END_A - STORY GROUND PSZ-AC, Design Supply Air Flow Rate [m3/s], 0.12997
 Component Sizing Information, AirLoopHVAC, ZONE SMALLOFFICE WHOLEBUILDING - SM OFFICE B END_B - STORY GROUND PSZ-AC, Design Supply Air Flow Rate [m3/s], 0.10766
 Component Sizing Information, AirLoopHVAC, ZONE SMALLOFFICE WHOLEBUILDING - SM OFFICE C  - STORY GROUND PSZ-AC, Design Supply Air Flow Rate [m3/s], 0.18988
 Component Sizing Information, AirLoopHVAC, ZONE SMALLOFFICE WHOLEBUILDING - SM OFFICE C END_A - STORY GROUND PSZ-AC, Design Supply Air Flow Rate [m3/s], 9.87496E-002
 Component Sizing Information, AirLoopHVAC, ZONE SMALLOFFICE WHOLEBUILDING - SM OFFICE C END_B - STORY GROUND PSZ-AC, Design Supply Air Flow Rate [m3/s], 7.97817E-002
!<Controller:MechanicalVentilation>,Name,Availability Schedule Name,Demand Controlled Ventilation {Yes/No},System Outdoor Air Method,Zone Maximum Outdoor Air Fraction,Number of Zones,Zone Name,DSOA Name,DSZAD Name
 Controller:MechanicalVentilation,CONTROLLER MECHANICAL VENTILATION 4,ALWAYS ON DISCRETE,No,ZoneSum,1.00,1,ZONE SMALLOFFICE WHOLEBUILDING - SM OFFICE A  - STORY GROUND,SMALLOFFICE WHOLEBUILDING - SM OFFICE VENTILATION,
 Controller:MechanicalVentilation,CONTROLLER MECHANICAL VENTILATION 6,ALWAYS ON DISCRETE,No,ZoneSum,1.00,1,ZONE SMALLOFFICE WHOLEBUILDING - SM OFFICE A END_A - STORY GROUND,SMALLOFFICE WHOLEBUILDING - SM OFFICE VENTILATION,
 Controller:MechanicalVentilation,CONTROLLER MECHANICAL VENTILATION 2,ALWAYS ON DISCRETE,No,ZoneSum,1.00,1,ZONE SMALLOFFICE WHOLEBUILDING - SM OFFICE A END_B - STORY GROUND,SMALLOFFICE WHOLEBUILDING - SM OFFICE VENTILATION,
 Controller:MechanicalVentilation,CONTROLLER MECHANICAL VENTILATION 3,ALWAYS ON DISCRETE,No,ZoneSum,1.00,1,ZONE SMALLOFFICE WHOLEBUILDING - SM OFFICE B  - STORY GROUND,SMALLOFFICE WHOLEBUILDING - SM OFFICE VENTILATION,
 Controller:MechanicalVentilation,CONTROLLER MECHANICAL VENTILATION 9,ALWAYS ON DISCRETE,No,ZoneSum,1.00,1,ZONE SMALLOFFICE WHOLEBUILDING - SM OFFICE B END_A - STORY GROUND,SMALLOFFICE WHOLEBUILDING - SM OFFICE VENTILATION,
 Controller:MechanicalVentilation,CONTROLLER MECHANICAL VENTILATION 1,ALWAYS ON DISCRETE,No,ZoneSum,1.00,1,ZONE SMALLOFFICE WHOLEBUILDING - SM OFFICE B END_B - STORY GROUND,SMALLOFFICE WHOLEBUILDING - SM OFFICE VENTILATION,
 Controller:MechanicalVentilation,CONTROLLER MECHANICAL VENTILATION 5,ALWAYS ON DISCRETE,No,ZoneSum,1.00,1,ZONE SMALLOFFICE WHOLEBUILDING - SM OFFICE C  - STORY GROUND,SMALLOFFICE WHOLEBUILDING - SM OFFICE VENTILATION,
 Controller:MechanicalVentilation,CONTROLLER MECHANICAL VENTILATION 7,ALWAYS ON DISCRETE,No,ZoneSum,1.00,1,ZONE SMALLOFFICE WHOLEBUILDING - SM OFFICE C END_A - STORY GROUND,SMALLOFFICE WHOLEBUILDING - SM OFFICE VENTILATION,
 Controller:MechanicalVentilation,CONTROLLER MECHANICAL VENTILATION 8,ALWAYS ON DISCRETE,No,ZoneSum,1.00,1,ZONE SMALLOFFICE WHOLEBUILDING - SM OFFICE C END_B - STORY GROUND,SMALLOFFICE WHOLEBUILDING - SM OFFICE VENTILATION,
 Component Sizing Information, Controller:OutdoorAir, ZONE SMALLOFFICE WHOLEBUILDING - SM OFFICE A  - STORY GROUND PSZ-AC OA SYSTEM CONTROLLER, Maximum Outdoor Air Flow Rate [m3/s], 0.24625
 Component Sizing Information, Controller:OutdoorAir, ZONE SMALLOFFICE WHOLEBUILDING - SM OFFICE A  - STORY GROUND PSZ-AC OA SYSTEM CONTROLLER, Minimum Outdoor Air Flow Rate [m3/s], 3.38576E-002
 Component Sizing Information, AirLoopHVAC:UnitarySystem, ZONE SMALLOFFICE WHOLEBUILDING - SM OFFICE A  - STORY GROUND PSZ-AC UNITARY AC, Design Size Supply Air Flow Rate [m3/s], 0.24625
 Component Sizing Information, AirLoopHVAC:UnitarySystem, ZONE SMALLOFFICE WHOLEBUILDING - SM OFFICE A  - STORY GROUND PSZ-AC UNITARY AC, Design Size Heating Supply Air Flow Rate [m3/s], 0.24625
 Component Sizing Information, AirLoopHVAC:UnitarySystem, ZONE SMALLOFFICE WHOLEBUILDING - SM OFFICE A  - STORY GROUND PSZ-AC UNITARY AC, Design Size Cooling Supply Air Flow Rate [m3/s], 0.24625
 Component Sizing Information, AirLoopHVAC:UnitarySystem, ZONE SMALLOFFICE WHOLEBUILDING - SM OFFICE A  - STORY GROUND PSZ-AC UNITARY AC, User-Specified No Load Supply Air Flow Rate [m3/s], 0.00000
 Component Sizing Information, AirLoopHVAC:UnitarySystem, ZONE SMALLOFFICE WHOLEBUILDING - SM OFFICE A  - STORY GROUND PSZ-AC UNITARY AC, Design Size Nominal Cooling Capacity [W], 4143.50545
 Component Sizing Information, AirLoopHVAC:UnitarySystem, ZONE SMALLOFFICE WHOLEBUILDING - SM OFFICE A  - STORY GROUND PSZ-AC UNITARY AC, Design Size Nominal Heating Capacity [W], 9382.85977
 Component Sizing Information, AirLoopHVAC:UnitarySystem, ZONE SMALLOFFICE WHOLEBUILDING - SM OFFICE A  - STORY GROUND PSZ-AC UNITARY AC, Design Size Maximum Supply Air Temperature [C], 50.00000
 Component Sizing Information, AirLoopHVAC:UnitarySystem, ZONE SMALLOFFICE WHOLEBUILDING - SM OFFICE A  - STORY GROUND PSZ-AC UNITARY AC, User-Specified Maximum Supply Air Temperature [C], 80.00000
 Component Sizing Information, AirLoopHVAC:UnitarySystem, ZONE SMALLOFFICE WHOLEBUILDING - SM OFFICE A  - STORY GROUND PSZ-AC UNITARY AC, User-Specified Supplemental Heating Coil Nominal Capacity [W], 9382.85977
 Component Sizing Information, AirLoopHVAC:UnitarySystem, ZONE SMALLOFFICE WHOLEBUILDING - SM OFFICE A  - STORY GROUND PSZ-AC UNITARY AC, Fraction of Supply Air Flow That Goes Through the Controlling Zone, 1.00000
 Component Sizing Information, Coil:Cooling:DX:SingleSpeed, ZONE SMALLOFFICE WHOLEBUILDING - SM OFFICE A  - STORY GROUND PSZ-AC 1SPD DX AC CLG COIL, Design Size Rated Air Flow Rate [m3/s], 0.24625
 Component Sizing Information, Coil:Cooling:DX:SingleSpeed, ZONE SMALLOFFICE WHOLEBUILDING - SM OFFICE A  - STORY GROUND PSZ-AC 1SPD DX AC CLG COIL, Design Size Gross Rated Total Cooling Capacity [W], 4143.50545
 Component Sizing Information, Coil:Cooling:DX:SingleSpeed, ZONE SMALLOFFICE WHOLEBUILDING - SM OFFICE A  - STORY GROUND PSZ-AC 1SPD DX AC CLG COIL, Design Size Gross Rated Sensible Heat Ratio, 0.80070
! <DX Cooling Coil Standard Rating Information>, Component Type, Component Name, Standard Rating (Net) Cooling Capacity {W}, Standard Rated Net COP {W/W}, EER {Btu/W-h}, SEER User {Btu/W-h}, SEER Standard {Btu/W-h}, IEER {Btu/W-h}
 DX Cooling Coil Standard Rating Information, Coil:Cooling:DX:SingleSpeed, ZONE SMALLOFFICE WHOLEBUILDING - SM OFFICE A  - STORY GROUND PSZ-AC 1SPD DX AC CLG COIL, 3952.7, 2.52, 8.58, 9.86, 9.02, 9.41
 Component Sizing Information, Coil:Heating:Fuel, ZONE SMALLOFFICE WHOLEBUILDING - SM OFFICE A  - STORY GROUND PSZ-AC GAS HTG COIL, Design Size Nominal Capacity [W], 9382.85977
 Component Sizing Information, Fan:OnOff, ZONE SMALLOFFICE WHOLEBUILDING - SM OFFICE A  - STORY GROUND PSZ-AC FAN, Design Size Maximum Flow Rate [m3/s], 0.24625
 Component Sizing Information, Coil:Heating:Electric, ZONE SMALLOFFICE WHOLEBUILDING - SM OFFICE A  - STORY GROUND PSZ-AC ELECTRIC BACKUP HTG COIL, Design Size Nominal Capacity [W], 9382.85977
 Component Sizing Information, Controller:OutdoorAir, ZONE SMALLOFFICE WHOLEBUILDING - SM OFFICE A END_A - STORY GROUND PSZ-AC OA SYSTEM CONTROLLER, Maximum Outdoor Air Flow Rate [m3/s], 0.11061
 Component Sizing Information, Controller:OutdoorAir, ZONE SMALLOFFICE WHOLEBUILDING - SM OFFICE A END_A - STORY GROUND PSZ-AC OA SYSTEM CONTROLLER, Minimum Outdoor Air Flow Rate [m3/s], 1.06188E-002
 Component Sizing Information, AirLoopHVAC:UnitarySystem, ZONE SMALLOFFICE WHOLEBUILDING - SM OFFICE A END_A - STORY GROUND PSZ-AC UNITARY AC, Design Size Supply Air Flow Rate [m3/s], 0.11061
 Component Sizing Information, AirLoopHVAC:UnitarySystem, ZONE SMALLOFFICE WHOLEBUILDING - SM OFFICE A END_A - STORY GROUND PSZ-AC UNITARY AC, Design Size Heating Supply Air Flow Rate [m3/s], 0.11061
 Component Sizing Information, AirLoopHVAC:UnitarySystem, ZONE SMALLOFFICE WHOLEBUILDING - SM OFFICE A END_A - STORY GROUND PSZ-AC UNITARY AC, Design Size Cooling Supply Air Flow Rate [m3/s], 0.11061
 Component Sizing Information, AirLoopHVAC:UnitarySystem, ZONE SMALLOFFICE WHOLEBUILDING - SM OFFICE A END_A - STORY GROUND PSZ-AC UNITARY AC, User-Specified No Load Supply Air Flow Rate [m3/s], 0.00000
 Component Sizing Information, AirLoopHVAC:UnitarySystem, ZONE SMALLOFFICE WHOLEBUILDING - SM OFFICE A END_A - STORY GROUND PSZ-AC UNITARY AC, Design Size Nominal Cooling Capacity [W], 1830.97763
 Component Sizing Information, AirLoopHVAC:UnitarySystem, ZONE SMALLOFFICE WHOLEBUILDING - SM OFFICE A END_A - STORY GROUND PSZ-AC UNITARY AC, Design Size Nominal Heating Capacity [W], 4114.37480
 Component Sizing Information, AirLoopHVAC:UnitarySystem, ZONE SMALLOFFICE WHOLEBUILDING - SM OFFICE A END_A - STORY GROUND PSZ-AC UNITARY AC, Design Size Maximum Supply Air Temperature [C], 50.00000
 Component Sizing Information, AirLoopHVAC:UnitarySystem, ZONE SMALLOFFICE WHOLEBUILDING - SM OFFICE A END_A - STORY GROUND PSZ-AC UNITARY AC, User-Specified Maximum Supply Air Temperature [C], 80.00000
 Component Sizing Information, AirLoopHVAC:UnitarySystem, ZONE SMALLOFFICE WHOLEBUILDING - SM OFFICE A END_A - STORY GROUND PSZ-AC UNITARY AC, User-Specified Supplemental Heating Coil Nominal Capacity [W], 4114.37480
 Component Sizing Information, AirLoopHVAC:UnitarySystem, ZONE SMALLOFFICE WHOLEBUILDING - SM OFFICE A END_A - STORY GROUND PSZ-AC UNITARY AC, Fraction of Supply Air Flow That Goes Through the Controlling Zone, 1.00000
 Component Sizing Information, Coil:Cooling:DX:SingleSpeed, ZONE SMALLOFFICE WHOLEBUILDING - SM OFFICE A END_A - STORY GROUND PSZ-AC 1SPD DX AC CLG COIL, Design Size Rated Air Flow Rate [m3/s], 0.11061
 Component Sizing Information, Coil:Cooling:DX:SingleSpeed, ZONE SMALLOFFICE WHOLEBUILDING - SM OFFICE A END_A - STORY GROUND PSZ-AC 1SPD DX AC CLG COIL, Design Size Gross Rated Total Cooling Capacity [W], 1830.97763
 Component Sizing Information, Coil:Cooling:DX:SingleSpeed, ZONE SMALLOFFICE WHOLEBUILDING - SM OFFICE A END_A - STORY GROUND PSZ-AC 1SPD DX AC CLG COIL, Design Size Gross Rated Sensible Heat Ratio, 0.80066
 DX Cooling Coil Standard Rating Information, Coil:Cooling:DX:SingleSpeed, ZONE SMALLOFFICE WHOLEBUILDING - SM OFFICE A END_A - STORY GROUND PSZ-AC 1SPD DX AC CLG COIL, 1745.3, 2.51, 8.56, 9.83, 8.99, 9.37
 Component Sizing Information, Coil:Heating:Fuel, ZONE SMALLOFFICE WHOLEBUILDING - SM OFFICE A END_A - STORY GROUND PSZ-AC GAS HTG COIL, Design Size Nominal Capacity [W], 4114.37480
 Component Sizing Information, Fan:OnOff, ZONE SMALLOFFICE WHOLEBUILDING - SM OFFICE A END_A - STORY GROUND PSZ-AC FAN, Design Size Maximum Flow Rate [m3/s], 0.11061
 Component Sizing Information, Coil:Heating:Electric, ZONE SMALLOFFICE WHOLEBUILDING - SM OFFICE A END_A - STORY GROUND PSZ-AC ELECTRIC BACKUP HTG COIL, Design Size Nominal Capacity [W], 4114.37480
 Component Sizing Information, Controller:OutdoorAir, ZONE SMALLOFFICE WHOLEBUILDING - SM OFFICE A END_B - STORY GROUND PSZ-AC OA SYSTEM CONTROLLER, Maximum Outdoor Air Flow Rate [m3/s], 9.56635E-002
 Component Sizing Information, Controller:OutdoorAir, ZONE SMALLOFFICE WHOLEBUILDING - SM OFFICE A END_B - STORY GROUND PSZ-AC OA SYSTEM CONTROLLER, Minimum Outdoor Air Flow Rate [m3/s], 1.06188E-002
 Component Sizing Information, AirLoopHVAC:UnitarySystem, ZONE SMALLOFFICE WHOLEBUILDING - SM OFFICE A END_B - STORY GROUND PSZ-AC UNITARY AC, Design Size Supply Air Flow Rate [m3/s], 9.56635E-002
 Component Sizing Information, AirLoopHVAC:UnitarySystem, ZONE SMALLOFFICE WHOLEBUILDING - SM OFFICE A END_B - STORY GROUND PSZ-AC UNITARY AC, Design Size Heating Supply Air Flow Rate [m3/s], 9.56635E-002
 Component Sizing Information, AirLoopHVAC:UnitarySystem, ZONE SMALLOFFICE WHOLEBUILDING - SM OFFICE A END_B - STORY GROUND PSZ-AC UNITARY AC, Design Size Cooling Supply Air Flow Rate [m3/s], 9.56635E-002
 Component Sizing Information, AirLoopHVAC:UnitarySystem, ZONE SMALLOFFICE WHOLEBUILDING - SM OFFICE A END_B - STORY GROUND PSZ-AC UNITARY AC, User-Specified No Load Supply Air Flow Rate [m3/s], 0.00000
 Component Sizing Information, AirLoopHVAC:UnitarySystem, ZONE SMALLOFFICE WHOLEBUILDING - SM OFFICE A END_B - STORY GROUND PSZ-AC UNITARY AC, Design Size Nominal Cooling Capacity [W], 1599.47339
 Component Sizing Information, AirLoopHVAC:UnitarySystem, ZONE SMALLOFFICE WHOLEBUILDING - SM OFFICE A END_B - STORY GROUND PSZ-AC UNITARY AC, Design Size Nominal Heating Capacity [W], 3589.83427
 Component Sizing Information, AirLoopHVAC:UnitarySystem, ZONE SMALLOFFICE WHOLEBUILDING - SM OFFICE A END_B - STORY GROUND PSZ-AC UNITARY AC, Design Size Maximum Supply Air Temperature [C], 50.00000
 Component Sizing Information, AirLoopHVAC:UnitarySystem, ZONE SMALLOFFICE WHOLEBUILDING - SM OFFICE A END_B - STORY GROUND PSZ-AC UNITARY AC, User-Specified Maximum Supply Air Temperature [C], 80.00000
 Component Sizing Information, AirLoopHVAC:UnitarySystem, ZONE SMALLOFFICE WHOLEBUILDING - SM OFFICE A END_B - STORY GROUND PSZ-AC UNITARY AC, User-Specified Supplemental Heating Coil Nominal Capacity [W], 3589.83427
 Component Sizing Information, AirLoopHVAC:UnitarySystem, ZONE SMALLOFFICE WHOLEBUILDING - SM OFFICE A END_B - STORY GROUND PSZ-AC UNITARY AC, Fraction of Supply Air Flow That Goes Through the Controlling Zone, 1.00000
 Component Sizing Information, Coil:Cooling:DX:SingleSpeed, ZONE SMALLOFFICE WHOLEBUILDING - SM OFFICE A END_B - STORY GROUND PSZ-AC 1SPD DX AC CLG COIL, Design Size Rated Air Flow Rate [m3/s], 9.56635E-002
 Component Sizing Information, Coil:Cooling:DX:SingleSpeed, ZONE SMALLOFFICE WHOLEBUILDING - SM OFFICE A END_B - STORY GROUND PSZ-AC 1SPD DX AC CLG COIL, Design Size Gross Rated Total Cooling Capacity [W], 1599.47339
 Component Sizing Information, Coil:Cooling:DX:SingleSpeed, ZONE SMALLOFFICE WHOLEBUILDING - SM OFFICE A END_B - STORY GROUND PSZ-AC 1SPD DX AC CLG COIL, Design Size Gross Rated Sensible Heat Ratio, 0.80100
 DX Cooling Coil Standard Rating Information, Coil:Cooling:DX:SingleSpeed, ZONE SMALLOFFICE WHOLEBUILDING - SM OFFICE A END_B - STORY GROUND PSZ-AC 1SPD DX AC CLG COIL, 1525.3, 2.51, 8.57, 9.85, 9.01, 9.40
 Component Sizing Information, Coil:Heating:Fuel, ZONE SMALLOFFICE WHOLEBUILDING - SM OFFICE A END_B - STORY GROUND PSZ-AC GAS HTG COIL, Design Size Nominal Capacity [W], 3589.83427
 Component Sizing Information, Fan:OnOff, ZONE SMALLOFFICE WHOLEBUILDING - SM OFFICE A END_B - STORY GROUND PSZ-AC FAN, Design Size Maximum Flow Rate [m3/s], 9.56635E-002
 Component Sizing Information, Coil:Heating:Electric, ZONE SMALLOFFICE WHOLEBUILDING - SM OFFICE A END_B - STORY GROUND PSZ-AC ELECTRIC BACKUP HTG COIL, Design Size Nominal Capacity [W], 3589.83427
 Component Sizing Information, Controller:OutdoorAir, ZONE SMALLOFFICE WHOLEBUILDING - SM OFFICE B  - STORY GROUND PSZ-AC OA SYSTEM CONTROLLER, Maximum Outdoor Air Flow Rate [m3/s], 0.22996
 Component Sizing Information, Controller:OutdoorAir, ZONE SMALLOFFICE WHOLEBUILDING - SM OFFICE B  - STORY GROUND PSZ-AC OA SYSTEM CONTROLLER, Minimum Outdoor Air Flow Rate [m3/s], 4.93970E-002
 Component Sizing Information, AirLoopHVAC:UnitarySystem, ZONE SMALLOFFICE WHOLEBUILDING - SM OFFICE B  - STORY GROUND PSZ-AC UNITARY AC, Design Size Supply Air Flow Rate [m3/s], 0.22996
 Component Sizing Information, AirLoopHVAC:UnitarySystem, ZONE SMALLOFFICE WHOLEBUILDING - SM OFFICE B  - STORY GROUND PSZ-AC UNITARY AC, Design Size Heating Supply Air Flow Rate [m3/s], 0.22996
 Component Sizing Information, AirLoopHVAC:UnitarySystem, ZONE SMALLOFFICE WHOLEBUILDING - SM OFFICE B  - STORY GROUND PSZ-AC UNITARY AC, Design Size Cooling Supply Air Flow Rate [m3/s], 0.22996
 Component Sizing Information, AirLoopHVAC:UnitarySystem, ZONE SMALLOFFICE WHOLEBUILDING - SM OFFICE B  - STORY GROUND PSZ-AC UNITARY AC, User-Specified No Load Supply Air Flow Rate [m3/s], 0.00000
 Component Sizing Information, AirLoopHVAC:UnitarySystem, ZONE SMALLOFFICE WHOLEBUILDING - SM OFFICE B  - STORY GROUND PSZ-AC UNITARY AC, Design Size Nominal Cooling Capacity [W], 3997.80011
 Component Sizing Information, AirLoopHVAC:UnitarySystem, ZONE SMALLOFFICE WHOLEBUILDING - SM OFFICE B  - STORY GROUND PSZ-AC UNITARY AC, Design Size Nominal Heating Capacity [W], 9150.04320
 Component Sizing Information, AirLoopHVAC:UnitarySystem, ZONE SMALLOFFICE WHOLEBUILDING - SM OFFICE B  - STORY GROUND PSZ-AC UNITARY AC, Design Size Maximum Supply Air Temperature [C], 50.00000
 Component Sizing Information, AirLoopHVAC:UnitarySystem, ZONE SMALLOFFICE WHOLEBUILDING - SM OFFICE B  - STORY GROUND PSZ-AC UNITARY AC, User-Specified Maximum Supply Air Temperature [C], 80.00000
 Component Sizing Information, AirLoopHVAC:UnitarySystem, ZONE SMALLOFFICE WHOLEBUILDING - SM OFFICE B  - STORY GROUND PSZ-AC UNITARY AC, User-Specified Supplemental Heating Coil Nominal Capacity [W], 9150.04320
 Component Sizing Information, AirLoopHVAC:UnitarySystem, ZONE SMALLOFFICE WHOLEBUILDING - SM OFFICE B  - STORY GROUND PSZ-AC UNITARY AC, Fraction of Supply Air Flow That Goes Through the Controlling Zone, 1.00000
 Component Sizing Information, Coil:Cooling:DX:SingleSpeed, ZONE SMALLOFFICE WHOLEBUILDING - SM OFFICE B  - STORY GROUND PSZ-AC 1SPD DX AC CLG COIL, Design Size Rated Air Flow Rate [m3/s], 0.22996
 Component Sizing Information, Coil:Cooling:DX:SingleSpeed, ZONE SMALLOFFICE WHOLEBUILDING - SM OFFICE B  - STORY GROUND PSZ-AC 1SPD DX AC CLG COIL, Design Size Gross Rated Total Cooling Capacity [W], 3997.80011
 Component Sizing Information, Coil:Cooling:DX:SingleSpeed, ZONE SMALLOFFICE WHOLEBUILDING - SM OFFICE B  - STORY GROUND PSZ-AC 1SPD DX AC CLG COIL, Design Size Gross Rated Sensible Heat Ratio, 0.80007
 DX Cooling Coil Standard Rating Information, Coil:Cooling:DX:SingleSpeed, ZONE SMALLOFFICE WHOLEBUILDING - SM OFFICE B  - STORY GROUND PSZ-AC 1SPD DX AC CLG COIL, 3819.6, 2.53, 8.63, 9.92, 9.07, 9.50
 Component Sizing Information, Coil:Heating:Fuel, ZONE SMALLOFFICE WHOLEBUILDING - SM OFFICE B  - STORY GROUND PSZ-AC GAS HTG COIL, Design Size Nominal Capacity [W], 9150.04320
 Component Sizing Information, Fan:OnOff, ZONE SMALLOFFICE WHOLEBUILDING - SM OFFICE B  - STORY GROUND PSZ-AC FAN, Design Size Maximum Flow Rate [m3/s], 0.22996
 Component Sizing Information, Coil:Heating:Electric, ZONE SMALLOFFICE WHOLEBUILDING - SM OFFICE B  - STORY GROUND PSZ-AC ELECTRIC BACKUP HTG COIL, Design Size Nominal Capacity [W], 9150.04320
 Component Sizing Information, Controller:OutdoorAir, ZONE SMALLOFFICE WHOLEBUILDING - SM OFFICE B END_A - STORY GROUND PSZ-AC OA SYSTEM CONTROLLER, Maximum Outdoor Air Flow Rate [m3/s], 0.12997
 Component Sizing Information, Controller:OutdoorAir, ZONE SMALLOFFICE WHOLEBUILDING - SM OFFICE B END_A - STORY GROUND PSZ-AC OA SYSTEM CONTROLLER, Minimum Outdoor Air Flow Rate [m3/s], 1.54925E-002
 Component Sizing Information, AirLoopHVAC:UnitarySystem, ZONE SMALLOFFICE WHOLEBUILDING - SM OFFICE B END_A - STORY GROUND PSZ-AC UNITARY AC, Design Size Supply Air Flow Rate [m3/s], 0.12997
 Component Sizing Information, AirLoopHVAC:UnitarySystem, ZONE SMALLOFFICE WHOLEBUILDING - SM OFFICE B END_A - STORY GROUND PSZ-AC UNITARY AC, Design Size Heating Supply Air Flow Rate [m3/s], 0.12997
 Component Sizing Information, AirLoopHVAC:UnitarySystem, ZONE SMALLOFFICE WHOLEBUILDING - SM OFFICE B END_A - STORY GROUND PSZ-AC UNITARY AC, Design Size Cooling Supply Air Flow Rate [m3/s], 0.12997
 Component Sizing Information, AirLoopHVAC:UnitarySystem, ZONE SMALLOFFICE WHOLEBUILDING - SM OFFICE B END_A - STORY GROUND PSZ-AC UNITARY AC, User-Specified No Load Supply Air Flow Rate [m3/s], 0.00000
 Component Sizing Information, AirLoopHVAC:UnitarySystem, ZONE SMALLOFFICE WHOLEBUILDING - SM OFFICE B END_A - STORY GROUND PSZ-AC UNITARY AC, Design Size Nominal Cooling Capacity [W], 2152.49418
 Component Sizing Information, AirLoopHVAC:UnitarySystem, ZONE SMALLOFFICE WHOLEBUILDING - SM OFFICE B END_A - STORY GROUND PSZ-AC UNITARY AC, Design Size Nominal Heating Capacity [W], 4900.00091
 Component Sizing Information, AirLoopHVAC:UnitarySystem, ZONE SMALLOFFICE WHOLEBUILDING - SM OFFICE B END_A - STORY GROUND PSZ-AC UNITARY AC, Design Size Maximum Supply Air Temperature [C], 50.00000
 Component Sizing Information, AirLoopHVAC:UnitarySystem, ZONE SMALLOFFICE WHOLEBUILDING - SM OFFICE B END_A - STORY GROUND PSZ-AC UNITARY AC, User-Specified Maximum Supply Air Temperature [C], 80.00000
 Component Sizing Information, AirLoopHVAC:UnitarySystem, ZONE SMALLOFFICE WHOLEBUILDING - SM OFFICE B END_A - STORY GROUND PSZ-AC UNITARY AC, User-Specified Supplemental Heating Coil Nominal Capacity [W], 4900.00091
 Component Sizing Information, AirLoopHVAC:UnitarySystem, ZONE SMALLOFFICE WHOLEBUILDING - SM OFFICE B END_A - STORY GROUND PSZ-AC UNITARY AC, Fraction of Supply Air Flow That Goes Through the Controlling Zone, 1.00000
 Component Sizing Information, Coil:Cooling:DX:SingleSpeed, ZONE SMALLOFFICE WHOLEBUILDING - SM OFFICE B END_A - STORY GROUND PSZ-AC 1SPD DX AC CLG COIL, Design Size Rated Air Flow Rate [m3/s], 0.12997
 Component Sizing Information, Coil:Cooling:DX:SingleSpeed, ZONE SMALLOFFICE WHOLEBUILDING - SM OFFICE B END_A - STORY GROUND PSZ-AC 1SPD DX AC CLG COIL, Design Size Gross Rated Total Cooling Capacity [W], 2152.49418
 Component Sizing Information, Coil:Cooling:DX:SingleSpeed, ZONE SMALLOFFICE WHOLEBUILDING - SM OFFICE B END_A - STORY GROUND PSZ-AC 1SPD DX AC CLG COIL, Design Size Gross Rated Sensible Heat Ratio, 0.80047
 DX Cooling Coil Standard Rating Information, Coil:Cooling:DX:SingleSpeed, ZONE SMALLOFFICE WHOLEBUILDING - SM OFFICE B END_A - STORY GROUND PSZ-AC 1SPD DX AC CLG COIL, 2051.8, 2.51, 8.56, 9.83, 8.99, 9.37
 Component Sizing Information, Coil:Heating:Fuel, ZONE SMALLOFFICE WHOLEBUILDING - SM OFFICE B END_A - STORY GROUND PSZ-AC GAS HTG COIL, Design Size Nominal Capacity [W], 4900.00091
 Component Sizing Information, Fan:OnOff, ZONE SMALLOFFICE WHOLEBUILDING - SM OFFICE B END_A - STORY GROUND PSZ-AC FAN, Design Size Maximum Flow Rate [m3/s], 0.12997
 Component Sizing Information, Coil:Heating:Electric, ZONE SMALLOFFICE WHOLEBUILDING - SM OFFICE B END_A - STORY GROUND PSZ-AC ELECTRIC BACKUP HTG COIL, Design Size Nominal Capacity [W], 4900.00091
 Component Sizing Information, Controller:OutdoorAir, ZONE SMALLOFFICE WHOLEBUILDING - SM OFFICE B END_B - STORY GROUND PSZ-AC OA SYSTEM CONTROLLER, Maximum Outdoor Air Flow Rate [m3/s], 0.10766
 Component Sizing Information, Controller:OutdoorAir, ZONE SMALLOFFICE WHOLEBUILDING - SM OFFICE B END_B - STORY GROUND PSZ-AC OA SYSTEM CONTROLLER, Minimum Outdoor Air Flow Rate [m3/s], 1.54925E-002
 Component Sizing Information, AirLoopHVAC:UnitarySystem, ZONE SMALLOFFICE WHOLEBUILDING - SM OFFICE B END_B - STORY GROUND PSZ-AC UNITARY AC, Design Size Supply Air Flow Rate [m3/s], 0.10766
 Component Sizing Information, AirLoopHVAC:UnitarySystem, ZONE SMALLOFFICE WHOLEBUILDING - SM OFFICE B END_B - STORY GROUND PSZ-AC UNITARY AC, Design Size Heating Supply Air Flow Rate [m3/s], 0.10766
 Component Sizing Information, AirLoopHVAC:UnitarySystem, ZONE SMALLOFFICE WHOLEBUILDING - SM OFFICE B END_B - STORY GROUND PSZ-AC UNITARY AC, Design Size Cooling Supply Air Flow Rate [m3/s], 0.10766
 Component Sizing Information, AirLoopHVAC:UnitarySystem, ZONE SMALLOFFICE WHOLEBUILDING - SM OFFICE B END_B - STORY GROUND PSZ-AC UNITARY AC, User-Specified No Load Supply Air Flow Rate [m3/s], 0.00000
 Component Sizing Information, AirLoopHVAC:UnitarySystem, ZONE SMALLOFFICE WHOLEBUILDING - SM OFFICE B END_B - STORY GROUND PSZ-AC UNITARY AC, Design Size Nominal Cooling Capacity [W], 1782.17475
 Component Sizing Information, AirLoopHVAC:UnitarySystem, ZONE SMALLOFFICE WHOLEBUILDING - SM OFFICE B END_B - STORY GROUND PSZ-AC UNITARY AC, Design Size Nominal Heating Capacity [W], 4117.23579
 Component Sizing Information, AirLoopHVAC:UnitarySystem, ZONE SMALLOFFICE WHOLEBUILDING - SM OFFICE B END_B - STORY GROUND PSZ-AC UNITARY AC, Design Size Maximum Supply Air Temperature [C], 50.00000
 Component Sizing Information, AirLoopHVAC:UnitarySystem, ZONE SMALLOFFICE WHOLEBUILDING - SM OFFICE B END_B - STORY GROUND PSZ-AC UNITARY AC, User-Specified Maximum Supply Air Temperature [C], 80.00000
 Component Sizing Information, AirLoopHVAC:UnitarySystem, ZONE SMALLOFFICE WHOLEBUILDING - SM OFFICE B END_B - STORY GROUND PSZ-AC UNITARY AC, User-Specified Supplemental Heating Coil Nominal Capacity [W], 4117.23579
 Component Sizing Information, AirLoopHVAC:UnitarySystem, ZONE SMALLOFFICE WHOLEBUILDING - SM OFFICE B END_B - STORY GROUND PSZ-AC UNITARY AC, Fraction of Supply Air Flow That Goes Through the Controlling Zone, 1.00000
 Component Sizing Information, Coil:Cooling:DX:SingleSpeed, ZONE SMALLOFFICE WHOLEBUILDING - SM OFFICE B END_B - STORY GROUND PSZ-AC 1SPD DX AC CLG COIL, Design Size Rated Air Flow Rate [m3/s], 0.10766
 Component Sizing Information, Coil:Cooling:DX:SingleSpeed, ZONE SMALLOFFICE WHOLEBUILDING - SM OFFICE B END_B - STORY GROUND PSZ-AC 1SPD DX AC CLG COIL, Design Size Gross Rated Total Cooling Capacity [W], 1782.17475
 Component Sizing Information, Coil:Cooling:DX:SingleSpeed, ZONE SMALLOFFICE WHOLEBUILDING - SM OFFICE B END_B - STORY GROUND PSZ-AC 1SPD DX AC CLG COIL, Design Size Gross Rated Sensible Heat Ratio, 0.80066
 DX Cooling Coil Standard Rating Information, Coil:Cooling:DX:SingleSpeed, ZONE SMALLOFFICE WHOLEBUILDING - SM OFFICE B END_B - STORY GROUND PSZ-AC 1SPD DX AC CLG COIL, 1698.7, 2.51, 8.56, 9.83, 8.99, 9.37
 Component Sizing Information, Coil:Heating:Fuel, ZONE SMALLOFFICE WHOLEBUILDING - SM OFFICE B END_B - STORY GROUND PSZ-AC GAS HTG COIL, Design Size Nominal Capacity [W], 4117.23579
 Component Sizing Information, Fan:OnOff, ZONE SMALLOFFICE WHOLEBUILDING - SM OFFICE B END_B - STORY GROUND PSZ-AC FAN, Design Size Maximum Flow Rate [m3/s], 0.10766
 Component Sizing Information, Coil:Heating:Electric, ZONE SMALLOFFICE WHOLEBUILDING - SM OFFICE B END_B - STORY GROUND PSZ-AC ELECTRIC BACKUP HTG COIL, Design Size Nominal Capacity [W], 4117.23579
 Component Sizing Information, Controller:OutdoorAir, ZONE SMALLOFFICE WHOLEBUILDING - SM OFFICE C  - STORY GROUND PSZ-AC OA SYSTEM CONTROLLER, Maximum Outdoor Air Flow Rate [m3/s], 0.18988
 Component Sizing Information, Controller:OutdoorAir, ZONE SMALLOFFICE WHOLEBUILDING - SM OFFICE C  - STORY GROUND PSZ-AC OA SYSTEM CONTROLLER, Minimum Outdoor Air Flow Rate [m3/s], 3.38576E-002
 Component Sizing Information, AirLoopHVAC:UnitarySystem, ZONE SMALLOFFICE WHOLEBUILDING - SM OFFICE C  - STORY GROUND PSZ-AC UNITARY AC, Design Size Supply Air Flow Rate [m3/s], 0.18988
 Component Sizing Information, AirLoopHVAC:UnitarySystem, ZONE SMALLOFFICE WHOLEBUILDING - SM OFFICE C  - STORY GROUND PSZ-AC UNITARY AC, Design Size Heating Supply Air Flow Rate [m3/s], 0.18988
 Component Sizing Information, AirLoopHVAC:UnitarySystem, ZONE SMALLOFFICE WHOLEBUILDING - SM OFFICE C  - STORY GROUND PSZ-AC UNITARY AC, Design Size Cooling Supply Air Flow Rate [m3/s], 0.18988
[...]
 Warmup Convergence Information,ZONE SMALLOFFICE WHOLEBUILDING - SM OFFICE A END_A - STORY GROUND,SizingPeriod: CLIMATE ZONE 3 ANN CLG .4% CONDNS DB=>MWB HVAC Sizing Pass 1,3.0806319819E-002,0.1554114416,Pass,Pass,5.9282311426E-002,0.2934250111,Pass,Pass
 Warmup Convergence Information,ZONE SMALLOFFICE WHOLEBUILDING - SM OFFICE A END_B - STORY GROUND,SizingPeriod: CLIMATE ZONE 3 ANN CLG .4% CONDNS DB=>MWB HVAC Sizing Pass 1,3.2133697659E-002,0.1566869918,Pass,Pass,6.0855066565E-002,0.3445692012,Pass,Pass
 Warmup Convergence Information,ZONE SMALLOFFICE WHOLEBUILDING - SM OFFICE B  - STORY GROUND,SizingPeriod: CLIMATE ZONE 3 ANN CLG .4% CONDNS DB=>MWB HVAC Sizing Pass 1,3.7525158190E-002,0.1966476243,Pass,Pass,1.0410480004,11.6931012250,Pass,Pass
 Warmup Convergence Information,ZONE SMALLOFFICE WHOLEBUILDING - SM OFFICE B END_A - STORY GROUND,SizingPeriod: CLIMATE ZONE 3 ANN CLG .4% CONDNS DB=>MWB HVAC Sizing Pass 1,3.7928013884E-002,0.1963631523,Pass,Pass,7.9115384648E-002,0.5111304381,Pass,Pass
 Warmup Convergence Information,ZONE SMALLOFFICE WHOLEBUILDING - SM OFFICE B END_B - STORY GROUND,SizingPeriod: CLIMATE ZONE 3 ANN CLG .4% CONDNS DB=>MWB HVAC Sizing Pass 1,3.9313656954E-002,0.1906649047,Pass,Pass,0.1243246055,0.7808599965,Pass,Pass
 Warmup Convergence Information,ZONE SMALLOFFICE WHOLEBUILDING - SM OFFICE C  - STORY GROUND,SizingPeriod: CLIMATE ZONE 3 ANN CLG .4% CONDNS DB=>MWB HVAC Sizing Pass 1,3.1828910203E-002,0.1551853034,Pass,Pass,0.1888137243,0.9629141625,Pass,Pass
 Warmup Convergence Information,ZONE SMALLOFFICE WHOLEBUILDING - SM OFFICE C END_A - STORY GROUND,SizingPeriod: CLIMATE ZONE 3 ANN CLG .4% CONDNS DB=>MWB HVAC Sizing Pass 1,2.8019077022E-002,0.1373272750,Pass,Pass,5.9974549693E-002,0.3004045007,Pass,Pass
 Warmup Convergence Information,ZONE SMALLOFFICE WHOLEBUILDING - SM OFFICE C END_B - STORY GROUND,SizingPeriod: CLIMATE ZONE 3 ANN CLG .4% CONDNS DB=>MWB HVAC Sizing Pass 1,2.9034608195E-002,0.1348358446,Pass,Pass,7.0565447087E-002,0.4063448429,Pass,Pass
Environment,CLIMATE ZONE 3 ANN CLG .4% CONDNS WB=>MDB HVAC Sizing Pass 1,SizingPeriod:DesignDay,08/21,08/21,SummerDesignDay,1,N/A,N/A,N/A,N/A,N/A,N/A,Clark and Allen
Environment:Daylight Saving,No,SizingPeriod:DesignDay
Environment:Design Day Data,25.50,7.40,DefaultMultipliers,Wetbulb,19.80,{C},101301,290,4.9,0.00,No,No
Environment:Design Day Misc,233,1106.3,0.2000,0.1216,1.0,-3.33,12.4,ASHRAETau
Environment:WarmupDays,  3
 Warmup Convergence Information,ZONE SMALLOFFICE WHOLEBUILDING - SM OFFICE A  - STORY GROUND,SizingPeriod: CLIMATE ZONE 3 ANN CLG .4% CONDNS WB=>MDB HVAC Sizing Pass 1,2.1881699887E-002,9.3875471905E-002,Pass,Pass,0.2618612897,1.3441939002,Pass,Pass
 Warmup Convergence Information,ZONE SMALLOFFICE WHOLEBUILDING - SM OFFICE A END_A - STORY GROUND,SizingPeriod: CLIMATE ZONE 3 ANN CLG .4% CONDNS WB=>MDB HVAC Sizing Pass 1,1.5312061965E-002,4.9483479620E-002,Pass,Pass,6.0094055169E-002,0.2286345353,Pass,Pass
 Warmup Convergence Information,ZONE SMALLOFFICE WHOLEBUILDING - SM OFFICE A END_B - STORY GROUND,SizingPeriod: CLIMATE ZONE 3 ANN CLG .4% CONDNS WB=>MDB HVAC Sizing Pass 1,1.6781395683E-002,4.9651676622E-002,Pass,Pass,6.6477598242E-002,0.2858200613,Pass,Pass
 Warmup Convergence Information,ZONE SMALLOFFICE WHOLEBUILDING - SM OFFICE B  - STORY GROUND,SizingPeriod: CLIMATE ZONE 3 ANN CLG .4% CONDNS WB=>MDB HVAC Sizing Pass 1,3.6579222062E-002,0.1598650437,Pass,Pass,0.1044469565,0.9285116887,Pass,Pass
 Warmup Convergence Information,ZONE SMALLOFFICE WHOLEBUILDING - SM OFFICE B END_A - STORY GROUND,SizingPeriod: CLIMATE ZONE 3 ANN CLG .4% CONDNS WB=>MDB HVAC Sizing Pass 1,2.4149863161E-002,0.1086309261,Pass,Pass,0.1233380217,0.8707890463,Pass,Pass
 Warmup Convergence Information,ZONE SMALLOFFICE WHOLEBUILDING - SM OFFICE B END_B - STORY GROUND,SizingPeriod: CLIMATE ZONE 3 ANN CLG .4% CONDNS WB=>MDB HVAC Sizing Pass 1,2.5499928557E-002,0.1078794095,Pass,Pass,0.3094763629,1.7895662311,Pass,Pass
 Warmup Convergence Information,ZONE SMALLOFFICE WHOLEBUILDING - SM OFFICE C  - STORY GROUND,SizingPeriod: CLIMATE ZONE 3 ANN CLG .4% CONDNS WB=>MDB HVAC Sizing Pass 1,1.7633893551E-002,6.7993009161E-002,Pass,Pass,0.9543477858,10.3039786102,Pass,Pass
 Warmup Convergence Information,ZONE SMALLOFFICE WHOLEBUILDING - SM OFFICE C END_A - STORY GROUND,SizingPeriod: CLIMATE ZONE 3 ANN CLG .4% CONDNS WB=>MDB HVAC Sizing Pass 1,1.2732480345E-002,3.5853045503E-002,Pass,Pass,6.0922011568E-002,0.2196195855,Pass,Pass
 Warmup Convergence Information,ZONE SMALLOFFICE WHOLEBUILDING - SM OFFICE C END_B - STORY GROUND,SizingPeriod: CLIMATE ZONE 3 ANN CLG .4% CONDNS WB=>MDB HVAC Sizing Pass 1,1.4159585597E-002,3.5623802296E-002,Pass,Pass,9.4624802523E-002,0.4304470747,Pass,Pass
Environment,CLIMATE ZONE 3 ANN HTG 99.6% CONDNS DB HVAC Sizing Pass 1,SizingPeriod:DesignDay,01/21,01/21,WinterDesignDay,1,N/A,N/A,N/A,N/A,N/A,N/A,Clark and Allen
Environment:Daylight Saving,No,SizingPeriod:DesignDay
Environment:Design Day Data,2.90,0.00,DefaultMultipliers,Wetbulb,2.90,{C},101301,50,2.2,0.00,No,No
Environment:Design Day Misc, 21,1229.0,0.1415,5.7310E-002,1.0,-11.15,-20.1,ASHRAEClearSky
Environment:WarmupDays,  3
 Warmup Convergence Information,ZONE SMALLOFFICE WHOLEBUILDING - SM OFFICE A  - STORY GROUND,SizingPeriod: CLIMATE ZONE 3 ANN HTG 99.6% CONDNS DB HVAC Sizing Pass 1,1.8503717077E-015,2.0498243731E-015,Pass,Pass,2.3682328461E-006,7.4050025649E-007,Pass,Pass
 Warmup Convergence Information,ZONE SMALLOFFICE WHOLEBUILDING - SM OFFICE A END_A - STORY GROUND,SizingPeriod: CLIMATE ZONE 3 ANN HTG 99.6% CONDNS DB HVAC Sizing Pass 1,3.1086244690E-015,2.5424942207E-015,Pass,Pass,2.8936119096E-006,9.0485069459E-007,Pass,Pass
 Warmup Convergence Information,ZONE SMALLOFFICE WHOLEBUILDING - SM OFFICE A END_B - STORY GROUND,SizingPeriod: CLIMATE ZONE 3 ANN HTG 99.6% CONDNS DB HVAC Sizing Pass 1,2.3931474086E-015,2.4352528894E-015,Pass,Pass,3.1001531853E-006,9.5411647532E-007,Pass,Pass
 Warmup Convergence Information,ZONE SMALLOFFICE WHOLEBUILDING - SM OFFICE B  - STORY GROUND,SizingPeriod: CLIMATE ZONE 3 ANN HTG 99.6% CONDNS DB HVAC Sizing Pass 1,2.4424906542E-015,2.3111135222E-015,Pass,Pass,1.0844696607E-006,3.3404076144E-007,Pass,Pass
 Warmup Convergence Information,ZONE SMALLOFFICE WHOLEBUILDING - SM OFFICE B END_A - STORY GROUND,SizingPeriod: CLIMATE ZONE 3 ANN HTG 99.6% CONDNS DB HVAC Sizing Pass 1,2.8865798640E-015,2.5110573552E-015,Pass,Pass,2.4834191950E-006,7.7584987495E-007,Pass,Pass
 Warmup Convergence Information,ZONE SMALLOFFICE WHOLEBUILDING - SM OFFICE B END_B - STORY GROUND,SizingPeriod: CLIMATE ZONE 3 ANN HTG 99.6% CONDNS DB HVAC Sizing Pass 1,2.6398636363E-015,2.3959435880E-015,Pass,Pass,2.8033818249E-006,8.5225496956E-007,Pass,Pass
 Warmup Convergence Information,ZONE SMALLOFFICE WHOLEBUILDING - SM OFFICE C  - STORY GROUND,SizingPeriod: CLIMATE ZONE 3 ANN HTG 99.6% CONDNS DB HVAC Sizing Pass 1,2.5165055225E-015,2.2105553718E-015,Pass,Pass,2.6883040412E-006,8.1694308529E-007,Pass,Pass
 Warmup Convergence Information,ZONE SMALLOFFICE WHOLEBUILDING - SM OFFICE C END_A - STORY GROUND,SizingPeriod: CLIMATE ZONE 3 ANN HTG 99.6% CONDNS DB HVAC Sizing Pass 1,2.2944609176E-015,2.2339742312E-015,Pass,Pass,3.1008855381E-006,9.5429097845E-007,Pass,Pass
 Warmup Convergence Information,ZONE SMALLOFFICE WHOLEBUILDING - SM OFFICE C END_B - STORY GROUND,SizingPeriod: CLIMATE ZONE 3 ANN HTG 99.6% CONDNS DB HVAC Sizing Pass 1,3.2073109600E-015,2.6585891598E-015,Pass,Pass,3.3077211791E-006,1.0036276185E-006,Pass,Pass
Environment,CLIMATE ZONE 3 ANN CLG .4% CONDNS DB=>MWB,SizingPeriod:DesignDay,08/21,08/21,SummerDesignDay,1,N/A,N/A,N/A,N/A,N/A,N/A,Clark and Allen
Environment:Daylight Saving,No,SizingPeriod:DesignDay
Environment:Design Day Data,27.70,7.40,DefaultMultipliers,Wetbulb,18.30,{C},101301,290,4.9,0.00,No,No
Environment:Design Day Misc,233,1106.3,0.2000,0.1216,1.0,-3.33,12.4,ASHRAETau
 Component Sizing Information, PlantLoop, HOT WATER LOOP, Maximum Loop Flow Rate [m3/s], 0.00000
 Component Sizing Information, PlantLoop, HOT WATER LOOP, Plant Loop Volume [m3], 0.00000
 Component Sizing Information, PlantLoop, OFFICE SHARED SERVICE WATER LOOP, Maximum Loop Flow Rate [m3/s], 2.31514E-006
 Component Sizing Information, PlantLoop, OFFICE SHARED SERVICE WATER LOOP, Plant Loop Volume [m3], 2.77817E-004
 Component Sizing Information, Boiler:HotWater, BOILER, Design Size Nominal Capacity [W], 0.00000
 Component Sizing Information, Boiler:HotWater, BOILER, Design Size Design Water Flow Rate [m3/s], 0.00000
 Component Sizing Information, Pump:VariableSpeed, HOT WATER LOOP PUMP, Design Flow Rate [m3/s], 0.00000
 Component Sizing Information, Pump:VariableSpeed, HOT WATER LOOP PUMP, Design Power Consumption [W], 0.00000
 Component Sizing Information, WaterHeater:Mixed, 40GAL NATURALGAS WATER HEATER - 2KBTU/HR, Use Side Design Flow Rate [m3/s], 2.31514E-006
 Component Sizing Information, Pump:ConstantSpeed, OFFICE SHARED SERVICE WATER LOOP CIRCULATOR PUMP, Design Flow Rate [m3/s], 2.31514E-006
 Component Sizing Information, Pump:ConstantSpeed, OFFICE SHARED SERVICE WATER LOOP CIRCULATOR PUMP, Design Power Consumption [W], 0.29573
Environment,CLIMATE ZONE 3 ANN CLG .4% CONDNS WB=>MDB,SizingPeriod:DesignDay,08/21,08/21,SummerDesignDay,1,N/A,N/A,N/A,N/A,N/A,N/A,Clark and Allen
Environment:Daylight Saving,No,SizingPeriod:DesignDay
Environment:Design Day Data,25.50,7.40,DefaultMultipliers,Wetbulb,19.80,{C},101301,290,4.9,0.00,No,No
Environment:Design Day Misc,233,1106.3,0.2000,0.1216,1.0,-3.33,12.4,ASHRAETau
Environment,CLIMATE ZONE 3 ANN HTG 99.6% CONDNS DB,SizingPeriod:DesignDay,01/21,01/21,WinterDesignDay,1,N/A,N/A,N/A,N/A,N/A,N/A,Clark and Allen
Environment:Daylight Saving,No,SizingPeriod:DesignDay
Environment:Design Day Data,2.90,0.00,DefaultMultipliers,Wetbulb,2.90,{C},101301,50,2.2,0.00,No,No
Environment:Design Day Misc, 21,1229.0,0.1415,5.7310E-002,1.0,-11.15,-20.1,ASHRAEClearSky
Environment,CLIMATE ZONE 3 ANN CLG .4% CONDNS DB=>MWB HVAC Sizing Pass 1,SizingPeriod:DesignDay,08/21,08/21,SummerDesignDay,1,N/A,N/A,N/A,N/A,N/A,N/A,Clark and Allen
Environment:Daylight Saving,No,SizingPeriod:DesignDay
Environment:Design Day Data,27.70,7.40,DefaultMultipliers,Wetbulb,18.30,{C},101301,290,4.9,0.00,No,No
Environment:Design Day Misc,233,1106.3,0.2000,0.1216,1.0,-3.33,12.4,ASHRAETau
Environment,CLIMATE ZONE 3 ANN CLG .4% CONDNS WB=>MDB HVAC Sizing Pass 1,SizingPeriod:DesignDay,08/21,08/21,SummerDesignDay,1,N/A,N/A,N/A,N/A,N/A,N/A,Clark and Allen
Environment:Daylight Saving,No,SizingPeriod:DesignDay
Environment:Design Day Data,25.50,7.40,DefaultMultipliers,Wetbulb,19.80,{C},101301,290,4.9,0.00,No,No
Environment:Design Day Misc,233,1106.3,0.2000,0.1216,1.0,-3.33,12.4,ASHRAETau
Environment,CLIMATE ZONE 3 ANN HTG 99.6% CONDNS DB HVAC Sizing Pass 1,SizingPeriod:DesignDay,01/21,01/21,WinterDesignDay,1,N/A,N/A,N/A,N/A,N/A,N/A,Clark and Allen
Environment:Daylight Saving,No,SizingPeriod:DesignDay
Environment:Design Day Data,2.90,0.00,DefaultMultipliers,Wetbulb,2.90,{C},101301,50,2.2,0.00,No,No
Environment:Design Day Misc, 21,1229.0,0.1415,5.7310E-002,1.0,-11.15,-20.1,ASHRAEClearSky
Environment,CLIMATE ZONE 3 ANN CLG .4% CONDNS DB=>MWB,SizingPeriod:DesignDay,08/21,08/21,SummerDesignDay,1,N/A,N/A,N/A,N/A,N/A,N/A,Clark and Allen
Environment:Daylight Saving,No,SizingPeriod:DesignDay
Environment:Design Day Data,27.70,7.40,DefaultMultipliers,Wetbulb,18.30,{C},101301,290,4.9,0.00,No,No
Environment:Design Day Misc,233,1106.3,0.2000,0.1216,1.0,-3.33,12.4,ASHRAETau
Environment:WarmupDays,  3
 Warmup Convergence Information,ZONE SMALLOFFICE WHOLEBUILDING - SM OFFICE A  - STORY GROUND,SizingPeriod: CLIMATE ZONE 3 ANN CLG .4% CONDNS DB=>MWB,3.6044806991E-002,0.1812258436,Pass,Pass,8.8583515297E-002,0.6130605243,Pass,Pass
 Warmup Convergence Information,ZONE SMALLOFFICE WHOLEBUILDING - SM OFFICE A END_A - STORY GROUND,SizingPeriod: CLIMATE ZONE 3 ANN CLG .4% CONDNS DB=>MWB,3.0806319819E-002,0.1554114416,Pass,Pass,5.9282311426E-002,0.2934250111,Pass,Pass
 Warmup Convergence Information,ZONE SMALLOFFICE WHOLEBUILDING - SM OFFICE A END_B - STORY GROUND,SizingPeriod: CLIMATE ZONE 3 ANN CLG .4% CONDNS DB=>MWB,3.2133697659E-002,0.1566869918,Pass,Pass,6.0855066565E-002,0.3445692012,Pass,Pass
 Warmup Convergence Information,ZONE SMALLOFFICE WHOLEBUILDING - SM OFFICE B  - STORY GROUND,SizingPeriod: CLIMATE ZONE 3 ANN CLG .4% CONDNS DB=>MWB,3.7525158190E-002,0.1966476243,Pass,Pass,1.0410480004,11.6931012250,Pass,Pass
 Warmup Convergence Information,ZONE SMALLOFFICE WHOLEBUILDING - SM OFFICE B END_A - STORY GROUND,SizingPeriod: CLIMATE ZONE 3 ANN CLG .4% CONDNS DB=>MWB,3.7928013884E-002,0.1963631523,Pass,Pass,7.9115384648E-002,0.5111304381,Pass,Pass
 Warmup Convergence Information,ZONE SMALLOFFICE WHOLEBUILDING - SM OFFICE B END_B - STORY GROUND,SizingPeriod: CLIMATE ZONE 3 ANN CLG .4% CONDNS DB=>MWB,3.9313656954E-002,0.1906649047,Pass,Pass,0.1243246055,0.7808599965,Pass,Pass
 Warmup Convergence Information,ZONE SMALLOFFICE WHOLEBUILDING - SM OFFICE C  - STORY GROUND,SizingPeriod: CLIMATE ZONE 3 ANN CLG .4% CONDNS DB=>MWB,3.1828910203E-002,0.1551853034,Pass,Pass,0.1888137243,0.9629141625,Pass,Pass
 Warmup Convergence Information,ZONE SMALLOFFICE WHOLEBUILDING - SM OFFICE C END_A - STORY GROUND,SizingPeriod: CLIMATE ZONE 3 ANN CLG .4% CONDNS DB=>MWB,2.8019077022E-002,0.1373272750,Pass,Pass,5.9974549693E-002,0.3004045007,Pass,Pass
 Warmup Convergence Information,ZONE SMALLOFFICE WHOLEBUILDING - SM OFFICE C END_B - STORY GROUND,SizingPeriod: CLIMATE ZONE 3 ANN CLG .4% CONDNS DB=>MWB,2.9034608195E-002,0.1348358446,Pass,Pass,7.0565447087E-002,0.4063448429,Pass,Pass
Environment,CLIMATE ZONE 3 ANN CLG .4% CONDNS WB=>MDB,SizingPeriod:DesignDay,08/21,08/21,SummerDesignDay,1,N/A,N/A,N/A,N/A,N/A,N/A,Clark and Allen
Environment:Daylight Saving,No,SizingPeriod:DesignDay
Environment:Design Day Data,25.50,7.40,DefaultMultipliers,Wetbulb,19.80,{C},101301,290,4.9,0.00,No,No
Environment:Design Day Misc,233,1106.3,0.2000,0.1216,1.0,-3.33,12.4,ASHRAETau
Environment:WarmupDays,  3
 Warmup Convergence Information,ZONE SMALLOFFICE WHOLEBUILDING - SM OFFICE A  - STORY GROUND,SizingPeriod: CLIMATE ZONE 3 ANN CLG .4% CONDNS WB=>MDB,2.1881699887E-002,9.3875471905E-002,Pass,Pass,0.2618612897,1.3441939002,Pass,Pass
 Warmup Convergence Information,ZONE SMALLOFFICE WHOLEBUILDING - SM OFFICE A END_A - STORY GROUND,SizingPeriod: CLIMATE ZONE 3 ANN CLG .4% CONDNS WB=>MDB,1.5312061965E-002,4.9483479620E-002,Pass,Pass,6.0094055169E-002,0.2286345353,Pass,Pass
 Warmup Convergence Information,ZONE SMALLOFFICE WHOLEBUILDING - SM OFFICE A END_B - STORY GROUND,SizingPeriod: CLIMATE ZONE 3 ANN CLG .4% CONDNS WB=>MDB,1.6781395683E-002,4.9651676622E-002,Pass,Pass,6.6477598242E-002,0.2858200613,Pass,Pass
 Warmup Convergence Information,ZONE SMALLOFFICE WHOLEBUILDING - SM OFFICE B  - STORY GROUND,SizingPeriod: CLIMATE ZONE 3 ANN CLG .4% CONDNS WB=>MDB,3.6579222062E-002,0.1598650437,Pass,Pass,0.1044469565,0.9285116887,Pass,Pass
 Warmup Convergence Information,ZONE SMALLOFFICE WHOLEBUILDING - SM OFFICE B END_A - STORY GROUND,SizingPeriod: CLIMATE ZONE 3 ANN CLG .4% CONDNS WB=>MDB,2.4149863161E-002,0.1086309261,Pass,Pass,0.1233380217,0.8707890463,Pass,Pass
 Warmup Convergence Information,ZONE SMALLOFFICE WHOLEBUILDING - SM OFFICE B END_B - STORY GROUND,SizingPeriod: CLIMATE ZONE 3 ANN CLG .4% CONDNS WB=>MDB,2.5499928557E-002,0.1078794095,Pass,Pass,0.3094763629,1.7895662311,Pass,Pass
 Warmup Convergence Information,ZONE SMALLOFFICE WHOLEBUILDING - SM OFFICE C  - STORY GROUND,SizingPeriod: CLIMATE ZONE 3 ANN CLG .4% CONDNS WB=>MDB,1.7633893551E-002,6.7993009161E-002,Pass,Pass,0.9543477858,10.3039786102,Pass,Pass
 Warmup Convergence Information,ZONE SMALLOFFICE WHOLEBUILDING - SM OFFICE C END_A - STORY GROUND,SizingPeriod: CLIMATE ZONE 3 ANN CLG .4% CONDNS WB=>MDB,1.2732480345E-002,3.5853045503E-002,Pass,Pass,6.0922011568E-002,0.2196195855,Pass,Pass
 Warmup Convergence Information,ZONE SMALLOFFICE WHOLEBUILDING - SM OFFICE C END_B - STORY GROUND,SizingPeriod: CLIMATE ZONE 3 ANN CLG .4% CONDNS WB=>MDB,1.4159585597E-002,3.5623802296E-002,Pass,Pass,9.4624802523E-002,0.4304470747,Pass,Pass
Environment,CLIMATE ZONE 3 ANN HTG 99.6% CONDNS DB,SizingPeriod:DesignDay,01/21,01/21,WinterDesignDay,1,N/A,N/A,N/A,N/A,N/A,N/A,Clark and Allen
Environment:Daylight Saving,No,SizingPeriod:DesignDay
Environment:Design Day Data,2.90,0.00,DefaultMultipliers,Wetbulb,2.90,{C},101301,50,2.2,0.00,No,No
Environment:Design Day Misc, 21,1229.0,0.1415,5.7310E-002,1.0,-11.15,-20.1,ASHRAEClearSky
Environment:WarmupDays,  3
 Warmup Convergence Information,ZONE SMALLOFFICE WHOLEBUILDING - SM OFFICE A  - STORY GROUND,SizingPeriod: CLIMATE ZONE 3 ANN HTG 99.6% CONDNS DB,1.8503717077E-015,2.0498243731E-015,Pass,Pass,2.3682328461E-006,7.4050025649E-007,Pass,Pass
 Warmup Convergence Information,ZONE SMALLOFFICE WHOLEBUILDING - SM OFFICE A END_A - STORY GROUND,SizingPeriod: CLIMATE ZONE 3 ANN HTG 99.6% CONDNS DB,3.1086244690E-015,2.5424942207E-015,Pass,Pass,2.8936119096E-006,9.0485069459E-007,Pass,Pass
 Warmup Convergence Information,ZONE SMALLOFFICE WHOLEBUILDING - SM OFFICE A END_B - STORY GROUND,SizingPeriod: CLIMATE ZONE 3 ANN HTG 99.6% CONDNS DB,2.3931474086E-015,2.4352528894E-015,Pass,Pass,3.1001531853E-006,9.5411647532E-007,Pass,Pass
 Warmup Convergence Information,ZONE SMALLOFFICE WHOLEBUILDING - SM OFFICE B  - STORY GROUND,SizingPeriod: CLIMATE ZONE 3 ANN HTG 99.6% CONDNS DB,2.4424906542E-015,2.3111135222E-015,Pass,Pass,1.0844696607E-006,3.3404076144E-007,Pass,Pass
 Warmup Convergence Information,ZONE SMALLOFFICE WHOLEBUILDING - SM OFFICE B END_A - STORY GROUND,SizingPeriod: CLIMATE ZONE 3 ANN HTG 99.6% CONDNS DB,2.8865798640E-015,2.5110573552E-015,Pass,Pass,2.4834191950E-006,7.7584987495E-007,Pass,Pass
 Warmup Convergence Information,ZONE SMALLOFFICE WHOLEBUILDING - SM OFFICE B END_B - STORY GROUND,SizingPeriod: CLIMATE ZONE 3 ANN HTG 99.6% CONDNS DB,2.6398636363E-015,2.3959435880E-015,Pass,Pass,2.8033818249E-006,8.5225496956E-007,Pass,Pass
 Warmup Convergence Information,ZONE SMALLOFFICE WHOLEBUILDING - SM OFFICE C  - STORY GROUND,SizingPeriod: CLIMATE ZONE 3 ANN HTG 99.6% CONDNS DB,2.5165055225E-015,2.2105553718E-015,Pass,Pass,2.6883040412E-006,8.1694308529E-007,Pass,Pass
 Warmup Convergence Information,ZONE SMALLOFFICE WHOLEBUILDING - SM OFFICE C END_A - STORY GROUND,SizingPeriod: CLIMATE ZONE 3 ANN HTG 99.6% CONDNS DB,2.2944609176E-015,2.2339742312E-015,Pass,Pass,3.1008855381E-006,9.5429097845E-007,Pass,Pass
 Warmup Convergence Information,ZONE SMALLOFFICE WHOLEBUILDING - SM OFFICE C END_B - STORY GROUND,SizingPeriod: CLIMATE ZONE 3 ANN HTG 99.6% CONDNS DB,3.2073109600E-015,2.6585891598E-015,Pass,Pass,3.3077211791E-006,1.0036276185E-006,Pass,Pass
Environment,CLIMATE ZONE 3 ANN CLG .4% CONDNS DB=>MWB HVAC Sizing Pass 1,SizingPeriod:DesignDay,08/21,08/21,SummerDesignDay,1,N/A,N/A,N/A,N/A,N/A,N/A,Clark and Allen
Environment:Daylight Saving,No,SizingPeriod:DesignDay
Environment,CLIMATE ZONE 3 ANN CLG .4% CONDNS WB=>MDB HVAC Sizing Pass 1,SizingPeriod:DesignDay,08/21,08/21,SummerDesignDay,1,N/A,N/A,N/A,N/A,N/A,N/A,Clark and Allen
Environment:Daylight Saving,No,SizingPeriod:DesignDay
Environment,CLIMATE ZONE 3 ANN HTG 99.6% CONDNS DB HVAC Sizing Pass 1,SizingPeriod:DesignDay,01/21,01/21,WinterDesignDay,1,N/A,N/A,N/A,N/A,N/A,N/A,Clark and Allen
Environment:Daylight Saving,No,SizingPeriod:DesignDay
! <Program Control Information:Threads/Parallel Sims>, Threading Supported,Maximum Number of Threads, Env Set Threads (OMP_NUM_THREADS), EP Env Set Threads (EP_OMP_NUM_THREADS), IDF Set Threads, Number of Threads Used (Interior Radiant Exchange), Number Nominal Surfaces, Number Parallel Sims
Program Control:Threads/Parallel Sims, No,1, N/A, N/A, N/A, N/A, N/A, N/A
End of Data
