Program Version,EnergyPlus, Version 9.4.0-998c4b761e, YMD=2021.06.25 08:52
! <Version>, Version ID
 Version, 9.4
! <Timesteps per Hour>, #TimeSteps, Minutes per TimeStep {minutes}
 Timesteps per Hour,  4, 15
! <System Convergence Limits>, Minimum System TimeStep {minutes}, Max HVAC Iterations, Minimum Plant Iterations, Maximum Plant Iterations
 System Convergence Limits, 1, 20, 2, 8
! <Simulation Control>, Do Zone Sizing, Do System Sizing, Do Plant Sizing, Do Design Days, Do Weather Simulation, Do HVAC Sizing Simulation
 Simulation Control, Yes, Yes, Yes, No, Yes, Yes
! <Performance Precision Tradeoffs>, Use Coil Direct Simulation, Zone Radiant Exchange Algorithm, Override Mode, Number of Timestep In Hour, Force Euler Method, Minimum Number of Warmup Days, Force Suppress All Begin Environment Resets, Minimum System Timestep, MaxZoneTempDiff, MaxAllowedDelTemp
 Performance Precision Tradeoffs, No, ScriptF, Normal, 4, No, 1, No, 1.0, 0.300, 2.0000E-003
! <Output Reporting Tolerances>, Tolerance for Time Heating Setpoint Not Met, Tolerance for Zone Cooling Setpoint Not Met Time
 Output Reporting Tolerances, 0.200, 0.200, 
! <Site:GroundTemperature:BuildingSurface>,Jan{C},Feb{C},Mar{C},Apr{C},May{C},Jun{C},Jul{C},Aug{C},Sep{C},Oct{C},Nov{C},Dec{C}
 Site:GroundTemperature:BuildingSurface,  18.00,  18.00,  18.00,  18.00,  18.00,  18.00,  18.00,  18.00,  18.00,  18.00,  18.00,  18.00
! <Site:GroundTemperature:FCfactorMethod>,Jan{C},Feb{C},Mar{C},Apr{C},May{C},Jun{C},Jul{C},Aug{C},Sep{C},Oct{C},Nov{C},Dec{C}
 Site:GroundTemperature:FCfactorMethod,  18.80,  14.30,  13.60,  13.20,  13.30,  12.60,  15.30,  15.60,  17.70,  19.40,  19.70,  18.50
! <Site:GroundTemperature:Shallow>,Jan{C},Feb{C},Mar{C},Apr{C},May{C},Jun{C},Jul{C},Aug{C},Sep{C},Oct{C},Nov{C},Dec{C}
 Site:GroundTemperature:Shallow,  13.00,  13.00,  13.00,  13.00,  13.00,  13.00,  13.00,  13.00,  13.00,  13.00,  13.00,  13.00
! <Site:GroundTemperature:Deep>,Jan{C},Feb{C},Mar{C},Apr{C},May{C},Jun{C},Jul{C},Aug{C},Sep{C},Oct{C},Nov{C},Dec{C}
 Site:GroundTemperature:Deep,  16.00,  16.00,  16.00,  16.00,  16.00,  16.00,  16.00,  16.00,  16.00,  16.00,  16.00,  16.00
! <Site:GroundReflectance>,Jan{dimensionless},Feb{dimensionless},Mar{dimensionless},Apr{dimensionless},May{dimensionless},Jun{dimensionless},Jul{dimensionless},Aug{dimensionless},Sep{dimensionless},Oct{dimensionless},Nov{dimensionless},Dec{dimensionless}
 Site:GroundReflectance,  0.20,  0.20,  0.20,  0.20,  0.20,  0.20,  0.20,  0.20,  0.20,  0.20,  0.20,  0.20
! <Site:GroundReflectance:SnowModifier>, Normal, Daylighting {dimensionless}
 Site:GroundReflectance:SnowModifier,   1.000,   1.000
! <Site:GroundReflectance:Snow>,Jan{dimensionless},Feb{dimensionless},Mar{dimensionless},Apr{dimensionless},May{dimensionless},Jun{dimensionless},Jul{dimensionless},Aug{dimensionless},Sep{dimensionless},Oct{dimensionless},Nov{dimensionless},Dec{dimensionless}
 Site:GroundReflectance:Snow,  0.20,  0.20,  0.20,  0.20,  0.20,  0.20,  0.20,  0.20,  0.20,  0.20,  0.20,  0.20
! <Site:GroundReflectance:Snow:Daylighting>,Jan{dimensionless},Feb{dimensionless},Mar{dimensionless},Apr{dimensionless},May{dimensionless},Jun{dimensionless},Jul{dimensionless},Aug{dimensionless},Sep{dimensionless},Oct{dimensionless},Nov{dimensionless},Dec{dimensionless}
 Site:GroundReflectance:Snow:Daylighting,  0.20,  0.20,  0.20,  0.20,  0.20,  0.20,  0.20,  0.20,  0.20,  0.20,  0.20,  0.20
! <Environment:Weather Station>,Wind Sensor Height Above Ground {m},Wind Speed Profile Exponent {},Wind Speed Profile Boundary Layer Thickness {m},Air Temperature Sensor Height Above Ground {m},Wind Speed Modifier Coefficient-Internal,Temperature Modifier Coefficient-Internal
Environment:Weather Station,10.000,0.140,270.000,1.500,1.586,9.750E-003
! <Site:Location>, Location Name, Latitude {N+/S- Deg}, Longitude {E+/W- Deg},  Time Zone Number {GMT+/-}, Elevation {m},  Standard Pressure at Elevation {Pa}, Standard RhoAir at Elevation
Site:Location,Climate Zone 3 CA USA CTZRV2 WMO#=724930,37.70,-122.20,-8.00,2.00,101301,1.2040
! <Site Water Mains Temperature Information>,Calculation Method{},Water Mains Temperature Schedule Name{},Annual Average Outdoor Air Temperature{C},Maximum Difference In Monthly Average Outdoor Air Temperatures{deltaC},Fixed Default Water Mains Temperature{C}
Site Water Mains Temperature Information,Correlation,NA,14.14,7.80,NA
! <Building Information>, Building Name,North Axis {deg},Terrain,  Loads Convergence Tolerance Value,Temperature Convergence Tolerance Value,  Solar Distribution,Maximum Number of Warmup Days,Minimum Number of Warmup Days
 Building Information,90.1-2007|SmallOffice|SmallOffice,0.000,City,4.00000E-002,0.40000,FullExterior,25,1
! <Inside Convection Algorithm>, Algorithm {Simple | TARP | CeilingDiffuser | AdaptiveConvectionAlgorithm}
Inside Convection Algorithm,TARP
! <Outside Convection Algorithm>, Algorithm {SimpleCombined | TARP | MoWitt | DOE-2 | AdaptiveConvectionAlgorithm}
Outside Convection Algorithm,DOE-2
! <Sky Radiance Distribution>, Value {Anisotropic}
Sky Radiance Distribution,Anisotropic
! <Zone Air Solution Algorithm>, Value {ThirdOrderBackwardDifference | AnalyticalSolution | EulerMethod}
 Zone Air Solution Algorithm, ThirdOrderBackwardDifference
! <Zone Air Carbon Dioxide Balance Simulation>, Simulation {Yes/No}, Carbon Dioxide Concentration
 Zone Air Carbon Dioxide Balance Simulation, No,N/A
! <Zone Air Generic Contaminant Balance Simulation>, Simulation {Yes/No}, Generic Contaminant Concentration
 Zone Air Generic Contaminant Balance Simulation, No,N/A
! <Zone Air Mass Flow Balance Simulation>, Enforce Mass Balance, Adjust Zone Mixing, Adjust Zone Infiltration {AddInfiltration | AdjustInfiltration | None}, Infiltration Zones {MixingSourceZonesOnly | AllZones}
 Zone Air Mass Flow Balance Simulation, No,N/A,N/A,N/A
! <HVACSystemRootFindingAlgorithm>, Value {RegulaFalsi | Bisection | BisectionThenRegulaFalsi | RegulaFalsiThenBisection}
 HVACSystemRootFindingAlgorithm, RegulaFalsi
! <Environment:Site Atmospheric Variation>,Wind Speed Profile Exponent {},Wind Speed Profile Boundary Layer Thickness {m},Air Temperature Gradient Coefficient {K/m}
Environment:Site Atmospheric Variation,0.330,460.000,6.500000E-003
! <Surface Geometry>,Starting Corner,Vertex Input Direction,Coordinate System,Daylight Reference Point Coordinate System,Rectangular (Simple) Surface Coordinate System
 Surface Geometry,UpperLeftCorner,Counterclockwise,RelativeCoordinateSystem,RelativeCoordinateSystem,RelativeToZoneOrigin
! <Surface Heat Transfer Algorithm>, Value {CTF - ConductionTransferFunction | EMPD - MoisturePenetrationDepthConductionTransferFunction | CondFD - ConductionFiniteDifference | HAMT - CombinedHeatAndMoistureFiniteElement} - Description,Inside Surface Max Temperature Limit{C}, Surface Convection Coefficient Lower Limit {W/m2-K}, Surface Convection Coefficient Upper Limit {W/m2-K}
Surface Heat Transfer Algorithm, CTF - ConductionTransferFunction,200,0.10,1000.0
! <Shading Summary>, Number of Fixed Detached Shades, Number of Building Detached Shades, Number of Attached Shades
 Shading Summary,0,0,0
! <Zone Summary>, Number of Zones, Number of Zone Surfaces, Number of SubSurfaces
 Zone Summary,9,66,12
! <Zone Information>,Zone Name,North Axis {deg},Origin X-Coordinate {m},Origin Y-Coordinate {m},Origin Z-Coordinate {m},Centroid X-Coordinate {m},Centroid Y-Coordinate {m},Centroid Z-Coordinate {m},Type,Zone Multiplier,Zone List Multiplier,Minimum X {m},Maximum X {m},Minimum Y {m},Maximum Y {m},Minimum Z {m},Maximum Z {m},Ceiling Height {m},Volume {m3},Zone Inside Convection Algorithm {Simple-Detailed-CeilingDiffuser-TrombeWall},Zone Outside Convection Algorithm {Simple-Detailed-Tarp-MoWitt-DOE-2-BLAST}, Floor Area {m2},Exterior Gross Wall Area {m2},Exterior Net Wall Area {m2},Exterior Window Area {m2}, Number of Surfaces, Number of SubSurfaces, Number of Shading SubSurfaces,  Part of Total Building Area
 Zone Information, ZONE SMALLOFFICE WHOLEBUILDING - SM OFFICE A  - STORY GROUND,0.0,-76.28,-53.90,0.00,-1.94E-013,-51.62,1.52,1,1,1,-76.28,76.28,-53.90,-49.33,0.00,3.05,3.05,2126.05,TARP,DOE-2,697.52,465.01,395.26,69.75,6,1,0,Yes
 Zone Information, ZONE SMALLOFFICE WHOLEBUILDING - SM OFFICE A END_A - STORY GROUND,0.0,-80.85,-53.90,0.00,-78.57,-51.62,1.52,1,1,1,-80.85,-76.28,-53.90,-49.33,0.00,3.05,3.05,63.71,TARP,DOE-2,20.90,27.87,23.69,4.18,6,2,0,Yes
 Zone Information, ZONE SMALLOFFICE WHOLEBUILDING - SM OFFICE A END_B - STORY GROUND,0.0,76.28,-53.90,0.00,78.57,-51.62,1.52,1,1,1,76.28,80.85,-53.90,-49.33,0.00,3.05,3.05,63.71,TARP,DOE-2,20.90,27.87,23.69,4.18,6,2,0,Yes
 Zone Information, ZONE SMALLOFFICE WHOLEBUILDING - SM OFFICE B  - STORY GROUND,0.0,-76.28,-49.33,0.00,-1.99E-013,-1.76E-014,1.52,1,1,1,-76.28,76.28,-49.33,49.33,0.00,3.05,3.05,45878.98,TARP,DOE-2,15052.16,0.00,0.00,0.00,6,0,0,Yes
 Zone Information, ZONE SMALLOFFICE WHOLEBUILDING - SM OFFICE B END_A - STORY GROUND,0.0,-80.85,-49.33,0.00,-78.57,-1.83E-014,1.52,1,1,1,-80.85,-76.28,-49.33,49.33,0.00,3.05,3.05,1374.89,TARP,DOE-2,451.08,300.72,255.61,45.11,6,1,0,Yes
 Zone Information, ZONE SMALLOFFICE WHOLEBUILDING - SM OFFICE B END_B - STORY GROUND,0.0,76.28,-49.33,0.00,78.57,-1.83E-014,1.52,1,1,1,76.28,80.85,-49.33,49.33,0.00,3.05,3.05,1374.89,TARP,DOE-2,451.08,300.72,255.61,45.11,6,1,0,Yes
 Zone Information, ZONE SMALLOFFICE WHOLEBUILDING - SM OFFICE C  - STORY GROUND,0.0,-76.28,49.33,0.00,-1.94E-013,51.62,1.52,1,1,1,-76.28,76.28,49.33,53.90,0.00,3.05,3.05,2126.05,TARP,DOE-2,697.52,465.01,395.26,69.75,6,1,0,Yes
 Zone Information, ZONE SMALLOFFICE WHOLEBUILDING - SM OFFICE C END_A - STORY GROUND,0.0,-80.85,49.33,0.00,-78.57,51.62,1.52,1,1,1,-80.85,-76.28,49.33,53.90,0.00,3.05,3.05,63.71,TARP,DOE-2,20.90,27.87,23.69,4.18,6,2,0,Yes
 Zone Information, ZONE SMALLOFFICE WHOLEBUILDING - SM OFFICE C END_B - STORY GROUND,0.0,76.28,49.33,0.00,78.57,51.62,1.52,1,1,1,76.28,80.85,49.33,53.90,0.00,3.05,3.05,63.71,TARP,DOE-2,20.90,27.87,23.69,4.18,6,2,0,Yes
! <Zone Internal Gains Nominal>,Zone Name, Floor Area {m2},# Occupants,Area per Occupant {m2/person},Occupant per Area {person/m2},Interior Lighting {W/m2},Electric Load {W/m2},Gas Load {W/m2},Other Load {W/m2},Hot Water Eq {W/m2},Steam Equipment {W/m2},Sum Loads per Area {W/m2},Outdoor Controlled Baseboard Heat
 Zone Internal Gains Nominal, ZONE SMALLOFFICE WHOLEBUILDING - SM OFFICE A  - STORY GROUND,697.52,42.0,16.590,6.028E-002,10.764,6.781,0.000,0.000,0.000,0.000,17.545,No
 Zone Internal Gains Nominal, ZONE SMALLOFFICE WHOLEBUILDING - SM OFFICE A END_A - STORY GROUND,20.90,1.3,16.590,6.028E-002,10.764,6.781,0.000,0.000,0.000,0.000,17.545,No
 Zone Internal Gains Nominal, ZONE SMALLOFFICE WHOLEBUILDING - SM OFFICE A END_B - STORY GROUND,20.90,1.3,16.590,6.028E-002,10.764,6.781,0.000,0.000,0.000,0.000,17.545,No
 Zone Internal Gains Nominal, ZONE SMALLOFFICE WHOLEBUILDING - SM OFFICE B  - STORY GROUND,15052.16,907.3,16.590,6.028E-002,10.764,6.781,0.000,0.000,0.000,0.000,17.545,No
 Zone Internal Gains Nominal, ZONE SMALLOFFICE WHOLEBUILDING - SM OFFICE B END_A - STORY GROUND,451.08,27.2,16.590,6.028E-002,10.764,6.781,0.000,0.000,0.000,0.000,17.545,No
 Zone Internal Gains Nominal, ZONE SMALLOFFICE WHOLEBUILDING - SM OFFICE B END_B - STORY GROUND,451.08,27.2,16.590,6.028E-002,10.764,6.781,0.000,0.000,0.000,0.000,17.545,No
 Zone Internal Gains Nominal, ZONE SMALLOFFICE WHOLEBUILDING - SM OFFICE C  - STORY GROUND,697.52,42.0,16.590,6.028E-002,10.764,6.781,0.000,0.000,0.000,0.000,17.545,No
 Zone Internal Gains Nominal, ZONE SMALLOFFICE WHOLEBUILDING - SM OFFICE C END_A - STORY GROUND,20.90,1.3,16.590,6.028E-002,10.764,6.781,0.000,0.000,0.000,0.000,17.545,No
 Zone Internal Gains Nominal, ZONE SMALLOFFICE WHOLEBUILDING - SM OFFICE C END_B - STORY GROUND,20.90,1.3,16.590,6.028E-002,10.764,6.781,0.000,0.000,0.000,0.000,17.545,No
! <People Internal Gains Nominal>,Name,Schedule Name,Zone Name,Zone Floor Area {m2},# Zone Occupants,Number of People {},People/Floor Area {person/m2},Floor Area per person {m2/person},Fraction Radiant,Fraction Convected,Sensible Fraction Calculation,Activity level,ASHRAE 55 Warnings,Carbon Dioxide Generation Rate,Nominal Minimum Number of People,Nominal Maximum Number of People
 People Internal Gains Nominal, ZONE SMALLOFFICE WHOLEBUILDING - SM OFFICE A  - STORY GROUND SMALLOFFICE WHOLEBUILDING - SM OFFICE PEOPLE,OFFICESMALL BLDG_OCC_SCH,ZONE SMALLOFFICE WHOLEBUILDING - SM OFFICE A  - STORY GROUND,697.52,42.0,42.0,6.028E-002,16.590,0.300,0.700,AutoCalculate,OFFICESMALL ACTIVITY_SCH,No,3.8200E-008,0,42
 People Internal Gains Nominal, ZONE SMALLOFFICE WHOLEBUILDING - SM OFFICE A END_A - STORY GROUND SMALLOFFICE WHOLEBUILDING - SM OFFICE PEOPLE,OFFICESMALL BLDG_OCC_SCH,ZONE SMALLOFFICE WHOLEBUILDING - SM OFFICE A END_A - STORY GROUND,20.90,1.3,1.3,6.028E-002,16.590,0.300,0.700,AutoCalculate,OFFICESMALL ACTIVITY_SCH,No,3.8200E-008,0,1
 People Internal Gains Nominal, ZONE SMALLOFFICE WHOLEBUILDING - SM OFFICE A END_B - STORY GROUND SMALLOFFICE WHOLEBUILDING - SM OFFICE PEOPLE,OFFICESMALL BLDG_OCC_SCH,ZONE SMALLOFFICE WHOLEBUILDING - SM OFFICE A END_B - STORY GROUND,20.90,1.3,1.3,6.028E-002,16.590,0.300,0.700,AutoCalculate,OFFICESMALL ACTIVITY_SCH,No,3.8200E-008,0,1
 People Internal Gains Nominal, ZONE SMALLOFFICE WHOLEBUILDING - SM OFFICE B  - STORY GROUND SMALLOFFICE WHOLEBUILDING - SM OFFICE PEOPLE,OFFICESMALL BLDG_OCC_SCH,ZONE SMALLOFFICE WHOLEBUILDING - SM OFFICE B  - STORY GROUND,15052.16,907.3,907.3,6.028E-002,16.590,0.300,0.700,AutoCalculate,OFFICESMALL ACTIVITY_SCH,No,3.8200E-008,0,907
 People Internal Gains Nominal, ZONE SMALLOFFICE WHOLEBUILDING - SM OFFICE B END_A - STORY GROUND SMALLOFFICE WHOLEBUILDING - SM OFFICE PEOPLE,OFFICESMALL BLDG_OCC_SCH,ZONE SMALLOFFICE WHOLEBUILDING - SM OFFICE B END_A - STORY GROUND,451.08,27.2,27.2,6.028E-002,16.590,0.300,0.700,AutoCalculate,OFFICESMALL ACTIVITY_SCH,No,3.8200E-008,0,27
 People Internal Gains Nominal, ZONE SMALLOFFICE WHOLEBUILDING - SM OFFICE B END_B - STORY GROUND SMALLOFFICE WHOLEBUILDING - SM OFFICE PEOPLE,OFFICESMALL BLDG_OCC_SCH,ZONE SMALLOFFICE WHOLEBUILDING - SM OFFICE B END_B - STORY GROUND,451.08,27.2,27.2,6.028E-002,16.590,0.300,0.700,AutoCalculate,OFFICESMALL ACTIVITY_SCH,No,3.8200E-008,0,27
 People Internal Gains Nominal, ZONE SMALLOFFICE WHOLEBUILDING - SM OFFICE C  - STORY GROUND SMALLOFFICE WHOLEBUILDING - SM OFFICE PEOPLE,OFFICESMALL BLDG_OCC_SCH,ZONE SMALLOFFICE WHOLEBUILDING - SM OFFICE C  - STORY GROUND,697.52,42.0,42.0,6.028E-002,16.590,0.300,0.700,AutoCalculate,OFFICESMALL ACTIVITY_SCH,No,3.8200E-008,0,42
 People Internal Gains Nominal, ZONE SMALLOFFICE WHOLEBUILDING - SM OFFICE C END_A - STORY GROUND SMALLOFFICE WHOLEBUILDING - SM OFFICE PEOPLE,OFFICESMALL BLDG_OCC_SCH,ZONE SMALLOFFICE WHOLEBUILDING - SM OFFICE C END_A - STORY GROUND,20.90,1.3,1.3,6.028E-002,16.590,0.300,0.700,AutoCalculate,OFFICESMALL ACTIVITY_SCH,No,3.8200E-008,0,1
 People Internal Gains Nominal, ZONE SMALLOFFICE WHOLEBUILDING - SM OFFICE C END_B - STORY GROUND SMALLOFFICE WHOLEBUILDING - SM OFFICE PEOPLE,OFFICESMALL BLDG_OCC_SCH,ZONE SMALLOFFICE WHOLEBUILDING - SM OFFICE C END_B - STORY GROUND,20.90,1.3,1.3,6.028E-002,16.590,0.300,0.700,AutoCalculate,OFFICESMALL ACTIVITY_SCH,No,3.8200E-008,0,1
! <Lights Internal Gains Nominal>,Name,Schedule Name,Zone Name,Zone Floor Area {m2},# Zone Occupants,Lighting Level {W},Lights/Floor Area {W/m2},Lights per person {W/person},Fraction Return Air,Fraction Radiant,Fraction Short Wave,Fraction Convected,Fraction Replaceable,End-Use Category,Nominal Minimum Lighting Level {W},Nominal Maximum Lighting Level {W}
 Lights Internal Gains Nominal, ZONE SMALLOFFICE WHOLEBUILDING - SM OFFICE A  - STORY GROUND SMALLOFFICE WHOLEBUILDING - SM OFFICE LIGHTS,OFFICESMALL BLDG_LIGHT_SCH,ZONE SMALLOFFICE WHOLEBUILDING - SM OFFICE A  - STORY GROUND,697.52,42.0,7508.069,10.764,178.571,0.000,0.700,0.200,0.100,1.000,General,0.000,7508.069
 Lights Internal Gains Nominal, ZONE SMALLOFFICE WHOLEBUILDING - SM OFFICE A END_A - STORY GROUND SMALLOFFICE WHOLEBUILDING - SM OFFICE LIGHTS,OFFICESMALL BLDG_LIGHT_SCH,ZONE SMALLOFFICE WHOLEBUILDING - SM OFFICE A END_A - STORY GROUND,20.90,1.3,225.000,10.764,178.571,0.000,0.700,0.200,0.100,1.000,General,0.000,225.000
 Lights Internal Gains Nominal, ZONE SMALLOFFICE WHOLEBUILDING - SM OFFICE A END_B - STORY GROUND SMALLOFFICE WHOLEBUILDING - SM OFFICE LIGHTS,OFFICESMALL BLDG_LIGHT_SCH,ZONE SMALLOFFICE WHOLEBUILDING - SM OFFICE A END_B - STORY GROUND,20.90,1.3,225.000,10.764,178.571,0.000,0.700,0.200,0.100,1.000,General,0.000,225.000
 Lights Internal Gains Nominal, ZONE SMALLOFFICE WHOLEBUILDING - SM OFFICE B  - STORY GROUND SMALLOFFICE WHOLEBUILDING - SM OFFICE LIGHTS,OFFICESMALL BLDG_LIGHT_SCH,ZONE SMALLOFFICE WHOLEBUILDING - SM OFFICE B  - STORY GROUND,15052.16,907.3,162020.103,10.764,178.571,0.000,0.700,0.200,0.100,1.000,General,0.000,162020.103
 Lights Internal Gains Nominal, ZONE SMALLOFFICE WHOLEBUILDING - SM OFFICE B END_A - STORY GROUND SMALLOFFICE WHOLEBUILDING - SM OFFICE LIGHTS,OFFICESMALL BLDG_LIGHT_SCH,ZONE SMALLOFFICE WHOLEBUILDING - SM OFFICE B END_A - STORY GROUND,451.08,27.2,4855.379,10.764,178.571,0.000,0.700,0.200,0.100,1.000,General,0.000,4855.379
 Lights Internal Gains Nominal, ZONE SMALLOFFICE WHOLEBUILDING - SM OFFICE B END_B - STORY GROUND SMALLOFFICE WHOLEBUILDING - SM OFFICE LIGHTS,OFFICESMALL BLDG_LIGHT_SCH,ZONE SMALLOFFICE WHOLEBUILDING - SM OFFICE B END_B - STORY GROUND,451.08,27.2,4855.379,10.764,178.571,0.000,0.700,0.200,0.100,1.000,General,0.000,4855.379
 Lights Internal Gains Nominal, ZONE SMALLOFFICE WHOLEBUILDING - SM OFFICE C  - STORY GROUND SMALLOFFICE WHOLEBUILDING - SM OFFICE LIGHTS,OFFICESMALL BLDG_LIGHT_SCH,ZONE SMALLOFFICE WHOLEBUILDING - SM OFFICE C  - STORY GROUND,697.52,42.0,7508.069,10.764,178.571,0.000,0.700,0.200,0.100,1.000,General,0.000,7508.069
 Lights Internal Gains Nominal, ZONE SMALLOFFICE WHOLEBUILDING - SM OFFICE C END_A - STORY GROUND SMALLOFFICE WHOLEBUILDING - SM OFFICE LIGHTS,OFFICESMALL BLDG_LIGHT_SCH,ZONE SMALLOFFICE WHOLEBUILDING - SM OFFICE C END_A - STORY GROUND,20.90,1.3,225.000,10.764,178.571,0.000,0.700,0.200,0.100,1.000,General,0.000,225.000
 Lights Internal Gains Nominal, ZONE SMALLOFFICE WHOLEBUILDING - SM OFFICE C END_B - STORY GROUND SMALLOFFICE WHOLEBUILDING - SM OFFICE LIGHTS,OFFICESMALL BLDG_LIGHT_SCH,ZONE SMALLOFFICE WHOLEBUILDING - SM OFFICE C END_B - STORY GROUND,20.90,1.3,225.000,10.764,178.571,0.000,0.700,0.200,0.100,1.000,General,0.000,225.000
! <ElectricEquipment Internal Gains Nominal>,Name,Schedule Name,Zone Name,Zone Floor Area {m2},# Zone Occupants,Equipment Level {W},Equipment/Floor Area {W/m2},Equipment per person {W/person},Fraction Latent,Fraction Radiant,Fraction Lost,Fraction Convected,End-Use SubCategory,Nominal Minimum Equipment Level {W},Nominal Maximum Equipment Level {W}
 ElectricEquipment Internal Gains Nominal, ZONE SMALLOFFICE WHOLEBUILDING - SM OFFICE A  - STORY GROUND SMALLOFFICE WHOLEBUILDING - SM OFFICE ELEC EQUIP,OFFICESMALL BLDG_EQUIP_SCH,ZONE SMALLOFFICE WHOLEBUILDING - SM OFFICE A  - STORY GROUND,697.52,42.0,4730.083,6.781,112.500,0.000,0.500,0.000,0.500,General,0.000,4730.083
 ElectricEquipment Internal Gains Nominal, ZONE SMALLOFFICE WHOLEBUILDING - SM OFFICE A END_A - STORY GROUND SMALLOFFICE WHOLEBUILDING - SM OFFICE ELEC EQUIP,OFFICESMALL BLDG_EQUIP_SCH,ZONE SMALLOFFICE WHOLEBUILDING - SM OFFICE A END_A - STORY GROUND,20.90,1.3,141.750,6.781,112.500,0.000,0.500,0.000,0.500,General,0.000,141.750
 ElectricEquipment Internal Gains Nominal, ZONE SMALLOFFICE WHOLEBUILDING - SM OFFICE A END_B - STORY GROUND SMALLOFFICE WHOLEBUILDING - SM OFFICE ELEC EQUIP,OFFICESMALL BLDG_EQUIP_SCH,ZONE SMALLOFFICE WHOLEBUILDING - SM OFFICE A END_B - STORY GROUND,20.90,1.3,141.750,6.781,112.500,0.000,0.500,0.000,0.500,General,0.000,141.750
 ElectricEquipment Internal Gains Nominal, ZONE SMALLOFFICE WHOLEBUILDING - SM OFFICE B  - STORY GROUND SMALLOFFICE WHOLEBUILDING - SM OFFICE ELEC EQUIP,OFFICESMALL BLDG_EQUIP_SCH,ZONE SMALLOFFICE WHOLEBUILDING - SM OFFICE B  - STORY GROUND,15052.16,907.3,102072.665,6.781,112.500,0.000,0.500,0.000,0.500,General,0.000,102072.665
 ElectricEquipment Internal Gains Nominal, ZONE SMALLOFFICE WHOLEBUILDING - SM OFFICE B END_A - STORY GROUND SMALLOFFICE WHOLEBUILDING - SM OFFICE ELEC EQUIP,OFFICESMALL BLDG_EQUIP_SCH,ZONE SMALLOFFICE WHOLEBUILDING - SM OFFICE B END_A - STORY GROUND,451.08,27.2,3058.889,6.781,112.500,0.000,0.500,0.000,0.500,General,0.000,3058.889
 ElectricEquipment Internal Gains Nominal, ZONE SMALLOFFICE WHOLEBUILDING - SM OFFICE B END_B - STORY GROUND SMALLOFFICE WHOLEBUILDING - SM OFFICE ELEC EQUIP,OFFICESMALL BLDG_EQUIP_SCH,ZONE SMALLOFFICE WHOLEBUILDING - SM OFFICE B END_B - STORY GROUND,451.08,27.2,3058.889,6.781,112.500,0.000,0.500,0.000,0.500,General,0.000,3058.889
 ElectricEquipment Internal Gains Nominal, ZONE SMALLOFFICE WHOLEBUILDING - SM OFFICE C  - STORY GROUND SMALLOFFICE WHOLEBUILDING - SM OFFICE ELEC EQUIP,OFFICESMALL BLDG_EQUIP_SCH,ZONE SMALLOFFICE WHOLEBUILDING - SM OFFICE C  - STORY GROUND,697.52,42.0,4730.083,6.781,112.500,0.000,0.500,0.000,0.500,General,0.000,4730.083
 ElectricEquipment Internal Gains Nominal, ZONE SMALLOFFICE WHOLEBUILDING - SM OFFICE C END_A - STORY GROUND SMALLOFFICE WHOLEBUILDING - SM OFFICE ELEC EQUIP,OFFICESMALL BLDG_EQUIP_SCH,ZONE SMALLOFFICE WHOLEBUILDING - SM OFFICE C END_A - STORY GROUND,20.90,1.3,141.750,6.781,112.500,0.000,0.500,0.000,0.500,General,0.000,141.750
 ElectricEquipment Internal Gains Nominal, ZONE SMALLOFFICE WHOLEBUILDING - SM OFFICE C END_B - STORY GROUND SMALLOFFICE WHOLEBUILDING - SM OFFICE ELEC EQUIP,OFFICESMALL BLDG_EQUIP_SCH,ZONE SMALLOFFICE WHOLEBUILDING - SM OFFICE C END_B - STORY GROUND,20.90,1.3,141.750,6.781,112.500,0.000,0.500,0.000,0.500,General,0.000,141.750
! <Shadowing/Sun Position Calculations Annual Simulations>, Shading Calculation Method, Shading Calculation Update Frequency Method, Shading Calculation Update Frequency {days}, Maximum Figures in Shadow Overlap Calculations {}, Polygon Clipping Algorithm, Pixel Counting Resolution, Sky Diffuse Modeling Algorithm, Output External Shading Calculation Results, Disable Self-Shading Within Shading Zone Groups, Disable Self-Shading From Shading Zone Groups to Other Zones
Shadowing/Sun Position Calculations Annual Simulations,PolygonClipping,Periodic,20,15000,SutherlandHodgman,512,SimpleSkyDiffuseModeling,No,No,No
! <Water Heater Information>,Type,Name,Volume {m3},Maximum Capacity {W},Standard Rated Recovery Efficiency, Standard Rated Energy Factor
! <ZoneInfiltration Airflow Stats Nominal>,Name,Schedule Name,Zone Name, Zone Floor Area {m2}, # Zone Occupants,Design Volume Flow Rate {m3/s},Volume Flow Rate/Floor Area {m3/s-m2},Volume Flow Rate/Exterior Surface Area {m3/s-m2},ACH - Air Changes per Hour,Equation A - Constant Term Coefficient {},Equation B - Temperature Term Coefficient {1/C},Equation C - Velocity Term Coefficient {s/m}, Equation D - Velocity Squared Term Coefficient {s2/m2}
 ZoneInfiltration Airflow Stats Nominal, SMALLOFFICE WHOLEBUILDING - SM OFFICE A  - STORY GROUND INFILTRATION,ALWAYS ON DISCRETE,ZONE SMALLOFFICE WHOLEBUILDING - SM OFFICE A  - STORY GROUND,697.52,42.0,0.477,6.835E-004,4.101E-004,0.807,0.000,0.000,0.224,0.000
 ZoneInfiltration Airflow Stats Nominal, SMALLOFFICE WHOLEBUILDING - SM OFFICE A END_A - STORY GROUND INFILTRATION,ALWAYS ON DISCRETE,ZONE SMALLOFFICE WHOLEBUILDING - SM OFFICE A END_A - STORY GROUND,20.90,1.3,2.857E-002,1.367E-003,5.858E-004,1.615,0.000,0.000,0.224,0.000
 ZoneInfiltration Airflow Stats Nominal, SMALLOFFICE WHOLEBUILDING - SM OFFICE A END_B - STORY GROUND INFILTRATION,ALWAYS ON DISCRETE,ZONE SMALLOFFICE WHOLEBUILDING - SM OFFICE A END_B - STORY GROUND,20.90,1.3,2.857E-002,1.367E-003,5.858E-004,1.615,0.000,0.000,0.224,0.000
 ZoneInfiltration Airflow Stats Nominal, SMALLOFFICE WHOLEBUILDING - SM OFFICE B END_A - STORY GROUND INFILTRATION,ALWAYS ON DISCRETE,ZONE SMALLOFFICE WHOLEBUILDING - SM OFFICE B END_A - STORY GROUND,451.08,27.2,0.308,6.835E-004,4.101E-004,0.807,0.000,0.000,0.224,0.000
 ZoneInfiltration Airflow Stats Nominal, SMALLOFFICE WHOLEBUILDING - SM OFFICE B END_B - STORY GROUND INFILTRATION,ALWAYS ON DISCRETE,ZONE SMALLOFFICE WHOLEBUILDING - SM OFFICE B END_B - STORY GROUND,451.08,27.2,0.308,6.835E-004,4.101E-004,0.807,0.000,0.000,0.224,0.000
 ZoneInfiltration Airflow Stats Nominal, SMALLOFFICE WHOLEBUILDING - SM OFFICE C  - STORY GROUND INFILTRATION,ALWAYS ON DISCRETE,ZONE SMALLOFFICE WHOLEBUILDING - SM OFFICE C  - STORY GROUND,697.52,42.0,0.477,6.835E-004,4.101E-004,0.807,0.000,0.000,0.224,0.000
 ZoneInfiltration Airflow Stats Nominal, SMALLOFFICE WHOLEBUILDING - SM OFFICE C END_A - STORY GROUND INFILTRATION,ALWAYS ON DISCRETE,ZONE SMALLOFFICE WHOLEBUILDING - SM OFFICE C END_A - STORY GROUND,20.90,1.3,2.857E-002,1.367E-003,5.858E-004,1.615,0.000,0.000,0.224,0.000
 ZoneInfiltration Airflow Stats Nominal, SMALLOFFICE WHOLEBUILDING - SM OFFICE C END_B - STORY GROUND INFILTRATION,ALWAYS ON DISCRETE,ZONE SMALLOFFICE WHOLEBUILDING - SM OFFICE C END_B - STORY GROUND,20.90,1.3,2.857E-002,1.367E-003,5.858E-004,1.615,0.000,0.000,0.224,0.000
! <AirFlow Model>, Simple
 AirFlow Model, Simple
! <RoomAir Model>, Zone Name, Mixing/Mundt/UCSDDV/UCSDCV/UCSDUFI/UCSDUFE/User Defined
RoomAir Model,ZONE SMALLOFFICE WHOLEBUILDING - SM OFFICE A  - STORY GROUND,Mixing/Well-Stirred
RoomAir Model,ZONE SMALLOFFICE WHOLEBUILDING - SM OFFICE A END_A - STORY GROUND,Mixing/Well-Stirred
RoomAir Model,ZONE SMALLOFFICE WHOLEBUILDING - SM OFFICE A END_B - STORY GROUND,Mixing/Well-Stirred
RoomAir Model,ZONE SMALLOFFICE WHOLEBUILDING - SM OFFICE B  - STORY GROUND,Mixing/Well-Stirred
RoomAir Model,ZONE SMALLOFFICE WHOLEBUILDING - SM OFFICE B END_A - STORY GROUND,Mixing/Well-Stirred
RoomAir Model,ZONE SMALLOFFICE WHOLEBUILDING - SM OFFICE B END_B - STORY GROUND,Mixing/Well-Stirred
RoomAir Model,ZONE SMALLOFFICE WHOLEBUILDING - SM OFFICE C  - STORY GROUND,Mixing/Well-Stirred
RoomAir Model,ZONE SMALLOFFICE WHOLEBUILDING - SM OFFICE C END_A - STORY GROUND,Mixing/Well-Stirred
RoomAir Model,ZONE SMALLOFFICE WHOLEBUILDING - SM OFFICE C END_B - STORY GROUND,Mixing/Well-Stirred
! <AirflowNetwork Model:Control>, No Multizone or Distribution/Multizone with Distribution/Multizone without Distribution/Multizone with Distribution only during Fan Operation
AirflowNetwork Model:Control,NoMultizoneOrDistribution
! <Zone Volume Capacitance Multiplier>, Sensible Heat Capacity Multiplier, Moisture Capacity Multiplier, Carbon Dioxide Capacity Multiplier, Generic Contaminant Capacity Multiplier
Zone Volume Capacitance Multiplier,   1.000 ,   1.000,   1.000,   1.000
! <Load Timesteps in Zone Design Calculation Averaging Window>, Value
 Load Timesteps in Zone Design Calculation Averaging Window,    4
! <Heating Sizing Factor Information>, Sizing Factor ID, Value
 Heating Sizing Factor Information, Global,   1.2500    
 Heating Sizing Factor Information, Zone ZONE SMALLOFFICE WHOLEBUILDING - SM OFFICE A  - STORY GROUND,   1.2500    
 Heating Sizing Factor Information, Zone ZONE SMALLOFFICE WHOLEBUILDING - SM OFFICE A END_A - STORY GROUND,   1.2500    
 Heating Sizing Factor Information, Zone ZONE SMALLOFFICE WHOLEBUILDING - SM OFFICE A END_B - STORY GROUND,   1.2500    
 Heating Sizing Factor Information, Zone ZONE SMALLOFFICE WHOLEBUILDING - SM OFFICE B  - STORY GROUND,   1.2500    
 Heating Sizing Factor Information, Zone ZONE SMALLOFFICE WHOLEBUILDING - SM OFFICE B END_A - STORY GROUND,   1.2500    
 Heating Sizing Factor Information, Zone ZONE SMALLOFFICE WHOLEBUILDING - SM OFFICE B END_B - STORY GROUND,   1.2500    
 Heating Sizing Factor Information, Zone ZONE SMALLOFFICE WHOLEBUILDING - SM OFFICE C  - STORY GROUND,   1.2500    
 Heating Sizing Factor Information, Zone ZONE SMALLOFFICE WHOLEBUILDING - SM OFFICE C END_A - STORY GROUND,   1.2500    
 Heating Sizing Factor Information, Zone ZONE SMALLOFFICE WHOLEBUILDING - SM OFFICE C END_B - STORY GROUND,   1.2500    
! <Cooling Sizing Factor Information>, Sizing Factor ID, Value
 Cooling Sizing Factor Information, Global,   1.1500    
 Cooling Sizing Factor Information, Zone ZONE SMALLOFFICE WHOLEBUILDING - SM OFFICE A  - STORY GROUND,   1.1500    
 Cooling Sizing Factor Information, Zone ZONE SMALLOFFICE WHOLEBUILDING - SM OFFICE A END_A - STORY GROUND,   1.1500    
 Cooling Sizing Factor Information, Zone ZONE SMALLOFFICE WHOLEBUILDING - SM OFFICE A END_B - STORY GROUND,   1.1500    
 Cooling Sizing Factor Information, Zone ZONE SMALLOFFICE WHOLEBUILDING - SM OFFICE B  - STORY GROUND,   1.1500    
 Cooling Sizing Factor Information, Zone ZONE SMALLOFFICE WHOLEBUILDING - SM OFFICE B END_A - STORY GROUND,   1.1500    
 Cooling Sizing Factor Information, Zone ZONE SMALLOFFICE WHOLEBUILDING - SM OFFICE B END_B - STORY GROUND,   1.1500    
 Cooling Sizing Factor Information, Zone ZONE SMALLOFFICE WHOLEBUILDING - SM OFFICE C  - STORY GROUND,   1.1500    
 Cooling Sizing Factor Information, Zone ZONE SMALLOFFICE WHOLEBUILDING - SM OFFICE C END_A - STORY GROUND,   1.1500    
 Cooling Sizing Factor Information, Zone ZONE SMALLOFFICE WHOLEBUILDING - SM OFFICE C END_B - STORY GROUND,   1.1500    
! <Zone Sizing Information>, Zone Name, Load Type, Calc Des Load {W}, User Des Load {W}, Calc Des Air Flow Rate {m3/s}, User Des Air Flow Rate {m3/s}, Design Day Name, Date/Time of Peak, Temperature at Peak {C}, Humidity Ratio at Peak {kgWater/kgDryAir}, Floor Area {m2}, # Occupants, Calc Outdoor Air Flow Rate {m3/s}, Calc DOAS Heat Addition Rate {W}
 Zone Sizing Information, ZONE SMALLOFFICE WHOLEBUILDING - SM OFFICE A  - STORY GROUND, Cooling, 15485.31281, 17808.10973, 1.13421, 1.30434, CLIMATE ZONE 3 ANN CLG .4% CONDNS DB=>MWB, 8/21 13:30:00, 27.51500, 9.32312E-003, 697.52244, 42.04519, 0.35434, 0.00000
 Zone Sizing Information, ZONE SMALLOFFICE WHOLEBUILDING - SM OFFICE A  - STORY GROUND, Heating, 23354.00877, 29192.51096, 0.63706, 0.79633, CLIMATE ZONE 3 ANN HTG 99.6% CONDNS DB, 1/21 07:15:00, 2.90000, 4.65595E-003, 697.52244, 42.04519, 0.35434, 0.00000
 Zone Sizing Information, ZONE SMALLOFFICE WHOLEBUILDING - SM OFFICE A END_A - STORY GROUND, Cooling, 799.56316, 919.49763, 5.85618E-002, 6.73461E-002, CLIMATE ZONE 3 ANN CLG .4% CONDNS DB=>MWB, 8/21 15:45:00, 27.36700, 9.32288E-003, 20.90318, 1.26000, 1.06188E-002, 0.00000
 Zone Sizing Information, ZONE SMALLOFFICE WHOLEBUILDING - SM OFFICE A END_A - STORY GROUND, Heating, 1113.47499, 1391.84373, 3.04854E-002, 3.81068E-002, CLIMATE ZONE 3 ANN HTG 99.6% CONDNS DB, 1/21 07:15:00, 2.90000, 4.65595E-003, 20.90318, 1.26000, 1.06188E-002, 0.00000
 Zone Sizing Information, ZONE SMALLOFFICE WHOLEBUILDING - SM OFFICE A END_B - STORY GROUND, Cooling, 683.17796, 785.65465, 5.00376E-002, 5.75432E-002, CLIMATE ZONE 3 ANN CLG .4% CONDNS DB=>MWB, 8/21 11:00:00, 25.99800, 9.32067E-003, 20.90318, 1.26000, 1.06188E-002, 0.00000
 Zone Sizing Information, ZONE SMALLOFFICE WHOLEBUILDING - SM OFFICE A END_B - STORY GROUND, Heating, 1113.34427, 1391.68034, 3.04819E-002, 3.81024E-002, CLIMATE ZONE 3 ANN HTG 99.6% CONDNS DB, 1/21 07:15:00, 2.90000, 4.65595E-003, 20.90318, 1.26000, 1.06188E-002, 0.00000
 Zone Sizing Information, ZONE SMALLOFFICE WHOLEBUILDING - SM OFFICE B  - STORY GROUND, Cooling, 143454.90798, 164973.14418, 10.50796, 12.08415, CLIMATE ZONE 3 ANN CLG .4% CONDNS DB=>MWB, 8/21 13:45:00, 27.60750, 9.32327E-003, 15052.16014, 907.31258, 7.64650, 0.00000
 Zone Sizing Information, ZONE SMALLOFFICE WHOLEBUILDING - SM OFFICE B  - STORY GROUND, Heating, 213907.90467, 267384.88083, 5.85637, 7.64650, CLIMATE ZONE 3 ANN HTG 99.6% CONDNS DB, 1/21 07:15:00, 2.90000, 4.65595E-003, 15052.16014, 907.31258, 7.64650, 0.00000
 Zone Sizing Information, ZONE SMALLOFFICE WHOLEBUILDING - SM OFFICE B END_A - STORY GROUND, Cooling, 12443.06637, 14309.52632, 0.91138, 1.04809, CLIMATE ZONE 3 ANN CLG .4% CONDNS DB=>MWB, 8/21 16:30:00, 26.96000, 9.32222E-003, 451.07950, 27.19012, 0.22915, 0.00000
 Zone Sizing Information, ZONE SMALLOFFICE WHOLEBUILDING - SM OFFICE B END_A - STORY GROUND, Heating, 15143.54378, 18929.42973, 0.41318, 0.51647, CLIMATE ZONE 3 ANN HTG 99.6% CONDNS DB, 1/21 07:15:00, 2.90000, 4.65595E-003, 451.07950, 27.19012, 0.22915, 0.00000
 Zone Sizing Information, ZONE SMALLOFFICE WHOLEBUILDING - SM OFFICE B END_B - STORY GROUND, Cooling, 10249.69290, 11787.14684, 0.75074, 0.86335, CLIMATE ZONE 3 ANN CLG .4% CONDNS DB=>MWB, 8/21 09:30:00, 24.25900, 9.31789E-003, 451.07950, 27.19012, 0.22915, 0.00000
 Zone Sizing Information, ZONE SMALLOFFICE WHOLEBUILDING - SM OFFICE B END_B - STORY GROUND, Heating, 15138.88424, 18923.60530, 0.41305, 0.51632, CLIMATE ZONE 3 ANN HTG 99.6% CONDNS DB, 1/21 07:15:00, 2.90000, 4.65595E-003, 451.07950, 27.19012, 0.22915, 0.00000
 Zone Sizing Information, ZONE SMALLOFFICE WHOLEBUILDING - SM OFFICE C  - STORY GROUND, Cooling, 10135.77122, 11656.13690, 0.74239, 0.85375, CLIMATE ZONE 3 ANN CLG .4% CONDNS DB=>MWB, 8/21 14:15:00, 27.70000, 9.32342E-003, 697.52244, 42.04519, 0.35434, 0.00000
 Zone Sizing Information, ZONE SMALLOFFICE WHOLEBUILDING - SM OFFICE C  - STORY GROUND, Heating, 23346.82565, 29183.53206, 0.63687, 0.79609, CLIMATE ZONE 3 ANN HTG 99.6% CONDNS DB, 1/21 07:15:00, 2.90000, 4.65595E-003, 697.52244, 42.04519, 0.35434, 0.00000
 Zone Sizing Information, ZONE SMALLOFFICE WHOLEBUILDING - SM OFFICE C END_A - STORY GROUND, Cooling, 689.92169, 793.40994, 5.05316E-002, 5.81114E-002, CLIMATE ZONE 3 ANN CLG .4% CONDNS DB=>MWB, 8/21 16:30:00, 26.96000, 9.32222E-003, 20.90318, 1.26000, 1.06188E-002, 0.00000
 Zone Sizing Information, ZONE SMALLOFFICE WHOLEBUILDING - SM OFFICE C END_A - STORY GROUND, Heating, 1113.34429, 1391.68037, 3.04819E-002, 3.81024E-002, CLIMATE ZONE 3 ANN HTG 99.6% CONDNS DB, 1/21 07:15:00, 2.90000, 4.65595E-003, 20.90318, 1.26000, 1.06188E-002, 0.00000
 Zone Sizing Information, ZONE SMALLOFFICE WHOLEBUILDING - SM OFFICE C END_B - STORY GROUND, Cooling, 553.16665, 636.14164, 4.05155E-002, 4.65929E-002, CLIMATE ZONE 3 ANN CLG .4% CONDNS DB=>MWB, 8/21 10:00:00, 24.88800, 9.31890E-003, 20.90318, 1.26000, 1.06188E-002, 0.00000
 Zone Sizing Information, ZONE SMALLOFFICE WHOLEBUILDING - SM OFFICE C END_B - STORY GROUND, Heating, 1113.21348, 1391.51685, 3.04784E-002, 3.80981E-002, CLIMATE ZONE 3 ANN HTG 99.6% CONDNS DB, 1/21 07:15:00, 2.90000, 4.65595E-003, 20.90318, 1.26000, 1.06188E-002, 0.00000
! <System Sizing Information>, System Name, Load Type, Peak Load Kind, User Design Capacity, Calc Des Air Flow Rate [m3/s], User Des Air Flow Rate [m3/s], Design Day Name, Date/Time of Peak
 System Sizing Information, ZONE SMALLOFFICE WHOLEBUILDING - SM OFFICE A  - STORY GROUND PSZ-AC, Cooling, Sensible, 19087.70, 1.30434, 1.30434, CLIMATE ZONE 3 ANN CLG .4% CONDNS DB=>MWB, 8/21 05:00:00
 System Sizing Information, ZONE SMALLOFFICE WHOLEBUILDING - SM OFFICE A  - STORY GROUND PSZ-AC, Heating, Sensible, 35886.34, 0.79633, 0.79633, CLIMATE ZONE 3 ANN HTG 99.6% CONDNS DB, 1/21 07:15:00
 System Sizing Information, ZONE SMALLOFFICE WHOLEBUILDING - SM OFFICE A END_A - STORY GROUND PSZ-AC, Cooling, Sensible, 949.97, 6.73461E-002, 6.73461E-002, CLIMATE ZONE 3 ANN CLG .4% CONDNS DB=>MWB, 8/21 05:00:00
 System Sizing Information, ZONE SMALLOFFICE WHOLEBUILDING - SM OFFICE A END_A - STORY GROUND PSZ-AC, Heating, Sensible, 1578.89, 3.81068E-002, 3.81068E-002, CLIMATE ZONE 3 ANN HTG 99.6% CONDNS DB, 1/21 07:15:00
 System Sizing Information, ZONE SMALLOFFICE WHOLEBUILDING - SM OFFICE A END_B - STORY GROUND PSZ-AC, Cooling, Sensible, 800.61, 5.75432E-002, 5.75432E-002, CLIMATE ZONE 3 ANN CLG .4% CONDNS DB=>MWB, 8/21 05:00:00
 System Sizing Information, ZONE SMALLOFFICE WHOLEBUILDING - SM OFFICE A END_B - STORY GROUND PSZ-AC, Heating, Sensible, 1578.74, 3.81024E-002, 3.81024E-002, CLIMATE ZONE 3 ANN HTG 99.6% CONDNS DB, 1/21 07:15:00
 System Sizing Information, ZONE SMALLOFFICE WHOLEBUILDING - SM OFFICE B  - STORY GROUND PSZ-AC, Cooling, Sensible, 197491.98, 12.08415, 12.08415, CLIMATE ZONE 3 ANN CLG .4% CONDNS DB=>MWB, 8/21 05:00:00
 System Sizing Information, ZONE SMALLOFFICE WHOLEBUILDING - SM OFFICE B  - STORY GROUND PSZ-AC, Heating, Sensible, 435735.81, 7.64650, 7.64650, CLIMATE ZONE 3 ANN HTG 99.6% CONDNS DB, 1/21 00:15:00
 System Sizing Information, ZONE SMALLOFFICE WHOLEBUILDING - SM OFFICE B END_A - STORY GROUND PSZ-AC, Cooling, Sensible, 14939.96, 1.04809, 1.04809, CLIMATE ZONE 3 ANN CLG .4% CONDNS DB=>MWB, 8/21 05:00:00
 System Sizing Information, ZONE SMALLOFFICE WHOLEBUILDING - SM OFFICE B END_A - STORY GROUND PSZ-AC, Heating, Sensible, 23232.17, 0.51647, 0.51647, CLIMATE ZONE 3 ANN HTG 99.6% CONDNS DB, 1/21 07:15:00
 System Sizing Information, ZONE SMALLOFFICE WHOLEBUILDING - SM OFFICE B END_B - STORY GROUND PSZ-AC, Cooling, Sensible, 11778.66, 0.86335, 0.86335, CLIMATE ZONE 3 ANN CLG .4% CONDNS DB=>MWB, 8/21 05:00:00
 System Sizing Information, ZONE SMALLOFFICE WHOLEBUILDING - SM OFFICE B END_B - STORY GROUND PSZ-AC, Heating, Sensible, 23226.74, 0.51632, 0.51632, CLIMATE ZONE 3 ANN HTG 99.6% CONDNS DB, 1/21 07:15:00
 System Sizing Information, ZONE SMALLOFFICE WHOLEBUILDING - SM OFFICE C  - STORY GROUND PSZ-AC, Cooling, Sensible, 13110.20, 0.85375, 0.85375, CLIMATE ZONE 3 ANN CLG .4% CONDNS DB=>MWB, 8/21 05:00:00
 System Sizing Information, ZONE SMALLOFFICE WHOLEBUILDING - SM OFFICE C  - STORY GROUND PSZ-AC, Heating, Sensible, 35877.89, 0.79609, 0.79609, CLIMATE ZONE 3 ANN HTG 99.6% CONDNS DB, 1/21 07:15:00
 System Sizing Information, ZONE SMALLOFFICE WHOLEBUILDING - SM OFFICE C END_A - STORY GROUND PSZ-AC, Cooling, Sensible, 820.67, 5.81114E-002, 5.81114E-002, CLIMATE ZONE 3 ANN CLG .4% CONDNS DB=>MWB, 8/21 05:00:00
 System Sizing Information, ZONE SMALLOFFICE WHOLEBUILDING - SM OFFICE C END_A - STORY GROUND PSZ-AC, Heating, Sensible, 1578.74, 3.81024E-002, 3.81024E-002, CLIMATE ZONE 3 ANN HTG 99.6% CONDNS DB, 1/21 07:15:00
 System Sizing Information, ZONE SMALLOFFICE WHOLEBUILDING - SM OFFICE C END_B - STORY GROUND PSZ-AC, Cooling, Sensible, 642.09, 4.65929E-002, 4.65929E-002, CLIMATE ZONE 3 ANN CLG .4% CONDNS DB=>MWB, 8/21 05:00:00
 System Sizing Information, ZONE SMALLOFFICE WHOLEBUILDING - SM OFFICE C END_B - STORY GROUND PSZ-AC, Heating, Sensible, 1578.58, 3.80981E-002, 3.80981E-002, CLIMATE ZONE 3 ANN HTG 99.6% CONDNS DB, 1/21 07:15:00
! <Component Sizing Information>, Component Type, Component Name, Input Field Description, Value
 Component Sizing Information, AirTerminal:SingleDuct:ConstantVolume:NoReheat, ZONE SMALLOFFICE WHOLEBUILDING - SM OFFICE A  - STORY GROUND PSZ-AC DIFFUSER, Design Size Maximum Air Flow Rate [m3/s], 1.30434
 Component Sizing Information, AirTerminal:SingleDuct:ConstantVolume:NoReheat, ZONE SMALLOFFICE WHOLEBUILDING - SM OFFICE A END_A - STORY GROUND PSZ-AC DIFFUSER, Design Size Maximum Air Flow Rate [m3/s], 6.73461E-002
 Component Sizing Information, AirTerminal:SingleDuct:ConstantVolume:NoReheat, ZONE SMALLOFFICE WHOLEBUILDING - SM OFFICE A END_B - STORY GROUND PSZ-AC DIFFUSER, Design Size Maximum Air Flow Rate [m3/s], 5.75432E-002
 Component Sizing Information, AirTerminal:SingleDuct:ConstantVolume:NoReheat, ZONE SMALLOFFICE WHOLEBUILDING - SM OFFICE B  - STORY GROUND PSZ-AC DIFFUSER, Design Size Maximum Air Flow Rate [m3/s], 12.08415
 Component Sizing Information, AirTerminal:SingleDuct:ConstantVolume:NoReheat, ZONE SMALLOFFICE WHOLEBUILDING - SM OFFICE B END_A - STORY GROUND PSZ-AC DIFFUSER, Design Size Maximum Air Flow Rate [m3/s], 1.04809
 Component Sizing Information, AirTerminal:SingleDuct:ConstantVolume:NoReheat, ZONE SMALLOFFICE WHOLEBUILDING - SM OFFICE B END_B - STORY GROUND PSZ-AC DIFFUSER, Design Size Maximum Air Flow Rate [m3/s], 0.86335
 Component Sizing Information, AirTerminal:SingleDuct:ConstantVolume:NoReheat, ZONE SMALLOFFICE WHOLEBUILDING - SM OFFICE C  - STORY GROUND PSZ-AC DIFFUSER, Design Size Maximum Air Flow Rate [m3/s], 0.85375
 Component Sizing Information, AirTerminal:SingleDuct:ConstantVolume:NoReheat, ZONE SMALLOFFICE WHOLEBUILDING - SM OFFICE C END_A - STORY GROUND PSZ-AC DIFFUSER, Design Size Maximum Air Flow Rate [m3/s], 5.81114E-002
 Component Sizing Information, AirTerminal:SingleDuct:ConstantVolume:NoReheat, ZONE SMALLOFFICE WHOLEBUILDING - SM OFFICE C END_B - STORY GROUND PSZ-AC DIFFUSER, Design Size Maximum Air Flow Rate [m3/s], 4.65929E-002
 Component Sizing Information, AirLoopHVAC, ZONE SMALLOFFICE WHOLEBUILDING - SM OFFICE A  - STORY GROUND PSZ-AC, Sum of Air Terminal Maximum Heating Flow Rates [m3/s], 1.30434
 Component Sizing Information, AirLoopHVAC, ZONE SMALLOFFICE WHOLEBUILDING - SM OFFICE A  - STORY GROUND PSZ-AC, Sum of Air Terminal Minimum Heating Flow Rates [m3/s], 1.30434
 Component Sizing Information, AirLoopHVAC, ZONE SMALLOFFICE WHOLEBUILDING - SM OFFICE A  - STORY GROUND PSZ-AC, Sum of Air Terminal Maximum Flow Rates [m3/s], 1.30434
 Component Sizing Information, AirLoopHVAC, ZONE SMALLOFFICE WHOLEBUILDING - SM OFFICE A  - STORY GROUND PSZ-AC, Adjusted Heating Design Air Flow Rate [m3/s], 1.30434
 Component Sizing Information, AirLoopHVAC, ZONE SMALLOFFICE WHOLEBUILDING - SM OFFICE A  - STORY GROUND PSZ-AC, Adjusted Cooling Design Air Flow Rate [m3/s], 1.30434
 Component Sizing Information, AirLoopHVAC, ZONE SMALLOFFICE WHOLEBUILDING - SM OFFICE A  - STORY GROUND PSZ-AC, Adjusted Main Design Air Flow Rate [m3/s], 1.30434
 Component Sizing Information, AirLoopHVAC, ZONE SMALLOFFICE WHOLEBUILDING - SM OFFICE A  - STORY GROUND PSZ-AC, User Heating Air Flow Ratio [], 1.00000
 Component Sizing Information, AirLoopHVAC, ZONE SMALLOFFICE WHOLEBUILDING - SM OFFICE A  - STORY GROUND PSZ-AC, Calculated Heating Air Flow Ratio [], 1.00000
 Component Sizing Information, AirLoopHVAC, ZONE SMALLOFFICE WHOLEBUILDING - SM OFFICE A END_A - STORY GROUND PSZ-AC, Sum of Air Terminal Maximum Heating Flow Rates [m3/s], 6.73461E-002
 Component Sizing Information, AirLoopHVAC, ZONE SMALLOFFICE WHOLEBUILDING - SM OFFICE A END_A - STORY GROUND PSZ-AC, Sum of Air Terminal Minimum Heating Flow Rates [m3/s], 6.73461E-002
 Component Sizing Information, AirLoopHVAC, ZONE SMALLOFFICE WHOLEBUILDING - SM OFFICE A END_A - STORY GROUND PSZ-AC, Sum of Air Terminal Maximum Flow Rates [m3/s], 6.73461E-002
 Component Sizing Information, AirLoopHVAC, ZONE SMALLOFFICE WHOLEBUILDING - SM OFFICE A END_A - STORY GROUND PSZ-AC, Adjusted Heating Design Air Flow Rate [m3/s], 6.73461E-002
 Component Sizing Information, AirLoopHVAC, ZONE SMALLOFFICE WHOLEBUILDING - SM OFFICE A END_A - STORY GROUND PSZ-AC, Adjusted Cooling Design Air Flow Rate [m3/s], 6.73461E-002
 Component Sizing Information, AirLoopHVAC, ZONE SMALLOFFICE WHOLEBUILDING - SM OFFICE A END_A - STORY GROUND PSZ-AC, Adjusted Main Design Air Flow Rate [m3/s], 6.73461E-002
 Component Sizing Information, AirLoopHVAC, ZONE SMALLOFFICE WHOLEBUILDING - SM OFFICE A END_A - STORY GROUND PSZ-AC, User Heating Air Flow Ratio [], 1.00000
 Component Sizing Information, AirLoopHVAC, ZONE SMALLOFFICE WHOLEBUILDING - SM OFFICE A END_A - STORY GROUND PSZ-AC, Calculated Heating Air Flow Ratio [], 1.00000
 Component Sizing Information, AirLoopHVAC, ZONE SMALLOFFICE WHOLEBUILDING - SM OFFICE A END_B - STORY GROUND PSZ-AC, Sum of Air Terminal Maximum Heating Flow Rates [m3/s], 5.75432E-002
 Component Sizing Information, AirLoopHVAC, ZONE SMALLOFFICE WHOLEBUILDING - SM OFFICE A END_B - STORY GROUND PSZ-AC, Sum of Air Terminal Minimum Heating Flow Rates [m3/s], 5.75432E-002
 Component Sizing Information, AirLoopHVAC, ZONE SMALLOFFICE WHOLEBUILDING - SM OFFICE A END_B - STORY GROUND PSZ-AC, Sum of Air Terminal Maximum Flow Rates [m3/s], 5.75432E-002
 Component Sizing Information, AirLoopHVAC, ZONE SMALLOFFICE WHOLEBUILDING - SM OFFICE A END_B - STORY GROUND PSZ-AC, Adjusted Heating Design Air Flow Rate [m3/s], 5.75432E-002
 Component Sizing Information, AirLoopHVAC, ZONE SMALLOFFICE WHOLEBUILDING - SM OFFICE A END_B - STORY GROUND PSZ-AC, Adjusted Cooling Design Air Flow Rate [m3/s], 5.75432E-002
 Component Sizing Information, AirLoopHVAC, ZONE SMALLOFFICE WHOLEBUILDING - SM OFFICE A END_B - STORY GROUND PSZ-AC, Adjusted Main Design Air Flow Rate [m3/s], 5.75432E-002
 Component Sizing Information, AirLoopHVAC, ZONE SMALLOFFICE WHOLEBUILDING - SM OFFICE A END_B - STORY GROUND PSZ-AC, User Heating Air Flow Ratio [], 1.00000
 Component Sizing Information, AirLoopHVAC, ZONE SMALLOFFICE WHOLEBUILDING - SM OFFICE A END_B - STORY GROUND PSZ-AC, Calculated Heating Air Flow Ratio [], 1.00000
 Component Sizing Information, AirLoopHVAC, ZONE SMALLOFFICE WHOLEBUILDING - SM OFFICE B  - STORY GROUND PSZ-AC, Sum of Air Terminal Maximum Heating Flow Rates [m3/s], 12.08415
 Component Sizing Information, AirLoopHVAC, ZONE SMALLOFFICE WHOLEBUILDING - SM OFFICE B  - STORY GROUND PSZ-AC, Sum of Air Terminal Minimum Heating Flow Rates [m3/s], 12.08415
 Component Sizing Information, AirLoopHVAC, ZONE SMALLOFFICE WHOLEBUILDING - SM OFFICE B  - STORY GROUND PSZ-AC, Sum of Air Terminal Maximum Flow Rates [m3/s], 12.08415
 Component Sizing Information, AirLoopHVAC, ZONE SMALLOFFICE WHOLEBUILDING - SM OFFICE B  - STORY GROUND PSZ-AC, Adjusted Heating Design Air Flow Rate [m3/s], 12.08415
 Component Sizing Information, AirLoopHVAC, ZONE SMALLOFFICE WHOLEBUILDING - SM OFFICE B  - STORY GROUND PSZ-AC, Adjusted Cooling Design Air Flow Rate [m3/s], 12.08415
 Component Sizing Information, AirLoopHVAC, ZONE SMALLOFFICE WHOLEBUILDING - SM OFFICE B  - STORY GROUND PSZ-AC, Adjusted Main Design Air Flow Rate [m3/s], 12.08415
 Component Sizing Information, AirLoopHVAC, ZONE SMALLOFFICE WHOLEBUILDING - SM OFFICE B  - STORY GROUND PSZ-AC, User Heating Air Flow Ratio [], 1.00000
 Component Sizing Information, AirLoopHVAC, ZONE SMALLOFFICE WHOLEBUILDING - SM OFFICE B  - STORY GROUND PSZ-AC, Calculated Heating Air Flow Ratio [], 1.00000
 Component Sizing Information, AirLoopHVAC, ZONE SMALLOFFICE WHOLEBUILDING - SM OFFICE B END_A - STORY GROUND PSZ-AC, Sum of Air Terminal Maximum Heating Flow Rates [m3/s], 1.04809
 Component Sizing Information, AirLoopHVAC, ZONE SMALLOFFICE WHOLEBUILDING - SM OFFICE B END_A - STORY GROUND PSZ-AC, Sum of Air Terminal Minimum Heating Flow Rates [m3/s], 1.04809
 Component Sizing Information, AirLoopHVAC, ZONE SMALLOFFICE WHOLEBUILDING - SM OFFICE B END_A - STORY GROUND PSZ-AC, Sum of Air Terminal Maximum Flow Rates [m3/s], 1.04809
 Component Sizing Information, AirLoopHVAC, ZONE SMALLOFFICE WHOLEBUILDING - SM OFFICE B END_A - STORY GROUND PSZ-AC, Adjusted Heating Design Air Flow Rate [m3/s], 1.04809
 Component Sizing Information, AirLoopHVAC, ZONE SMALLOFFICE WHOLEBUILDING - SM OFFICE B END_A - STORY GROUND PSZ-AC, Adjusted Cooling Design Air Flow Rate [m3/s], 1.04809
 Component Sizing Information, AirLoopHVAC, ZONE SMALLOFFICE WHOLEBUILDING - SM OFFICE B END_A - STORY GROUND PSZ-AC, Adjusted Main Design Air Flow Rate [m3/s], 1.04809
 Component Sizing Information, AirLoopHVAC, ZONE SMALLOFFICE WHOLEBUILDING - SM OFFICE B END_A - STORY GROUND PSZ-AC, User Heating Air Flow Ratio [], 1.00000
 Component Sizing Information, AirLoopHVAC, ZONE SMALLOFFICE WHOLEBUILDING - SM OFFICE B END_A - STORY GROUND PSZ-AC, Calculated Heating Air Flow Ratio [], 1.00000
 Component Sizing Information, AirLoopHVAC, ZONE SMALLOFFICE WHOLEBUILDING - SM OFFICE B END_B - STORY GROUND PSZ-AC, Sum of Air Terminal Maximum Heating Flow Rates [m3/s], 0.86335
 Component Sizing Information, AirLoopHVAC, ZONE SMALLOFFICE WHOLEBUILDING - SM OFFICE B END_B - STORY GROUND PSZ-AC, Sum of Air Terminal Minimum Heating Flow Rates [m3/s], 0.86335
 Component Sizing Information, AirLoopHVAC, ZONE SMALLOFFICE WHOLEBUILDING - SM OFFICE B END_B - STORY GROUND PSZ-AC, Sum of Air Terminal Maximum Flow Rates [m3/s], 0.86335
 Component Sizing Information, AirLoopHVAC, ZONE SMALLOFFICE WHOLEBUILDING - SM OFFICE B END_B - STORY GROUND PSZ-AC, Adjusted Heating Design Air Flow Rate [m3/s], 0.86335
 Component Sizing Information, AirLoopHVAC, ZONE SMALLOFFICE WHOLEBUILDING - SM OFFICE B END_B - STORY GROUND PSZ-AC, Adjusted Cooling Design Air Flow Rate [m3/s], 0.86335
 Component Sizing Information, AirLoopHVAC, ZONE SMALLOFFICE WHOLEBUILDING - SM OFFICE B END_B - STORY GROUND PSZ-AC, Adjusted Main Design Air Flow Rate [m3/s], 0.86335
 Component Sizing Information, AirLoopHVAC, ZONE SMALLOFFICE WHOLEBUILDING - SM OFFICE B END_B - STORY GROUND PSZ-AC, User Heating Air Flow Ratio [], 1.00000
 Component Sizing Information, AirLoopHVAC, ZONE SMALLOFFICE WHOLEBUILDING - SM OFFICE B END_B - STORY GROUND PSZ-AC, Calculated Heating Air Flow Ratio [], 1.00000
 Component Sizing Information, AirLoopHVAC, ZONE SMALLOFFICE WHOLEBUILDING - SM OFFICE C  - STORY GROUND PSZ-AC, Sum of Air Terminal Maximum Heating Flow Rates [m3/s], 0.85375
 Component Sizing Information, AirLoopHVAC, ZONE SMALLOFFICE WHOLEBUILDING - SM OFFICE C  - STORY GROUND PSZ-AC, Sum of Air Terminal Minimum Heating Flow Rates [m3/s], 0.85375
 Component Sizing Information, AirLoopHVAC, ZONE SMALLOFFICE WHOLEBUILDING - SM OFFICE C  - STORY GROUND PSZ-AC, Sum of Air Terminal Maximum Flow Rates [m3/s], 0.85375
 Component Sizing Information, AirLoopHVAC, ZONE SMALLOFFICE WHOLEBUILDING - SM OFFICE C  - STORY GROUND PSZ-AC, Adjusted Heating Design Air Flow Rate [m3/s], 0.85375
 Component Sizing Information, AirLoopHVAC, ZONE SMALLOFFICE WHOLEBUILDING - SM OFFICE C  - STORY GROUND PSZ-AC, Adjusted Cooling Design Air Flow Rate [m3/s], 0.85375
 Component Sizing Information, AirLoopHVAC, ZONE SMALLOFFICE WHOLEBUILDING - SM OFFICE C  - STORY GROUND PSZ-AC, Adjusted Main Design Air Flow Rate [m3/s], 0.85375
 Component Sizing Information, AirLoopHVAC, ZONE SMALLOFFICE WHOLEBUILDING - SM OFFICE C  - STORY GROUND PSZ-AC, User Heating Air Flow Ratio [], 1.00000
 Component Sizing Information, AirLoopHVAC, ZONE SMALLOFFICE WHOLEBUILDING - SM OFFICE C  - STORY GROUND PSZ-AC, Calculated Heating Air Flow Ratio [], 1.00000
 Component Sizing Information, AirLoopHVAC, ZONE SMALLOFFICE WHOLEBUILDING - SM OFFICE C END_A - STORY GROUND PSZ-AC, Sum of Air Terminal Maximum Heating Flow Rates [m3/s], 5.81114E-002
 Component Sizing Information, AirLoopHVAC, ZONE SMALLOFFICE WHOLEBUILDING - SM OFFICE C END_A - STORY GROUND PSZ-AC, Sum of Air Terminal Minimum Heating Flow Rates [m3/s], 5.81114E-002
 Component Sizing Information, AirLoopHVAC, ZONE SMALLOFFICE WHOLEBUILDING - SM OFFICE C END_A - STORY GROUND PSZ-AC, Sum of Air Terminal Maximum Flow Rates [m3/s], 5.81114E-002
 Component Sizing Information, AirLoopHVAC, ZONE SMALLOFFICE WHOLEBUILDING - SM OFFICE C END_A - STORY GROUND PSZ-AC, Adjusted Heating Design Air Flow Rate [m3/s], 5.81114E-002
 Component Sizing Information, AirLoopHVAC, ZONE SMALLOFFICE WHOLEBUILDING - SM OFFICE C END_A - STORY GROUND PSZ-AC, Adjusted Cooling Design Air Flow Rate [m3/s], 5.81114E-002
 Component Sizing Information, AirLoopHVAC, ZONE SMALLOFFICE WHOLEBUILDING - SM OFFICE C END_A - STORY GROUND PSZ-AC, Adjusted Main Design Air Flow Rate [m3/s], 5.81114E-002
 Component Sizing Information, AirLoopHVAC, ZONE SMALLOFFICE WHOLEBUILDING - SM OFFICE C END_A - STORY GROUND PSZ-AC, User Heating Air Flow Ratio [], 1.00000
 Component Sizing Information, AirLoopHVAC, ZONE SMALLOFFICE WHOLEBUILDING - SM OFFICE C END_A - STORY GROUND PSZ-AC, Calculated Heating Air Flow Ratio [], 1.00000
 Component Sizing Information, AirLoopHVAC, ZONE SMALLOFFICE WHOLEBUILDING - SM OFFICE C END_B - STORY GROUND PSZ-AC, Sum of Air Terminal Maximum Heating Flow Rates [m3/s], 4.65929E-002
 Component Sizing Information, AirLoopHVAC, ZONE SMALLOFFICE WHOLEBUILDING - SM OFFICE C END_B - STORY GROUND PSZ-AC, Sum of Air Terminal Minimum Heating Flow Rates [m3/s], 4.65929E-002
 Component Sizing Information, AirLoopHVAC, ZONE SMALLOFFICE WHOLEBUILDING - SM OFFICE C END_B - STORY GROUND PSZ-AC, Sum of Air Terminal Maximum Flow Rates [m3/s], 4.65929E-002
 Component Sizing Information, AirLoopHVAC, ZONE SMALLOFFICE WHOLEBUILDING - SM OFFICE C END_B - STORY GROUND PSZ-AC, Adjusted Heating Design Air Flow Rate [m3/s], 4.65929E-002
 Component Sizing Information, AirLoopHVAC, ZONE SMALLOFFICE WHOLEBUILDING - SM OFFICE C END_B - STORY GROUND PSZ-AC, Adjusted Cooling Design Air Flow Rate [m3/s], 4.65929E-002
 Component Sizing Information, AirLoopHVAC, ZONE SMALLOFFICE WHOLEBUILDING - SM OFFICE C END_B - STORY GROUND PSZ-AC, Adjusted Main Design Air Flow Rate [m3/s], 4.65929E-002
 Component Sizing Information, AirLoopHVAC, ZONE SMALLOFFICE WHOLEBUILDING - SM OFFICE C END_B - STORY GROUND PSZ-AC, User Heating Air Flow Ratio [], 1.00000
 Component Sizing Information, AirLoopHVAC, ZONE SMALLOFFICE WHOLEBUILDING - SM OFFICE C END_B - STORY GROUND PSZ-AC, Calculated Heating Air Flow Ratio [], 1.00000
 Component Sizing Information, AirLoopHVAC, ZONE SMALLOFFICE WHOLEBUILDING - SM OFFICE A  - STORY GROUND PSZ-AC, Design Supply Air Flow Rate [m3/s], 1.30434
 Component Sizing Information, AirLoopHVAC, ZONE SMALLOFFICE WHOLEBUILDING - SM OFFICE A END_A - STORY GROUND PSZ-AC, Design Supply Air Flow Rate [m3/s], 6.73461E-002
 Component Sizing Information, AirLoopHVAC, ZONE SMALLOFFICE WHOLEBUILDING - SM OFFICE A END_B - STORY GROUND PSZ-AC, Design Supply Air Flow Rate [m3/s], 5.75432E-002
 Component Sizing Information, AirLoopHVAC, ZONE SMALLOFFICE WHOLEBUILDING - SM OFFICE B  - STORY GROUND PSZ-AC, Design Supply Air Flow Rate [m3/s], 12.08415
 Component Sizing Information, AirLoopHVAC, ZONE SMALLOFFICE WHOLEBUILDING - SM OFFICE B END_A - STORY GROUND PSZ-AC, Design Supply Air Flow Rate [m3/s], 1.04809
 Component Sizing Information, AirLoopHVAC, ZONE SMALLOFFICE WHOLEBUILDING - SM OFFICE B END_B - STORY GROUND PSZ-AC, Design Supply Air Flow Rate [m3/s], 0.86335
 Component Sizing Information, AirLoopHVAC, ZONE SMALLOFFICE WHOLEBUILDING - SM OFFICE C  - STORY GROUND PSZ-AC, Design Supply Air Flow Rate [m3/s], 0.85375
 Component Sizing Information, AirLoopHVAC, ZONE SMALLOFFICE WHOLEBUILDING - SM OFFICE C END_A - STORY GROUND PSZ-AC, Design Supply Air Flow Rate [m3/s], 5.81114E-002
 Component Sizing Information, AirLoopHVAC, ZONE SMALLOFFICE WHOLEBUILDING - SM OFFICE C END_B - STORY GROUND PSZ-AC, Design Supply Air Flow Rate [m3/s], 4.65929E-002
!<Controller:MechanicalVentilation>,Name,Availability Schedule Name,Demand Controlled Ventilation {Yes/No},System Outdoor Air Method,Zone Maximum Outdoor Air Fraction,Number of Zones,Zone Name,DSOA Name,DSZAD Name
 Controller:MechanicalVentilation,CONTROLLER MECHANICAL VENTILATION 6,ALWAYS ON DISCRETE,No,ZoneSum,1.00,1,ZONE SMALLOFFICE WHOLEBUILDING - SM OFFICE A  - STORY GROUND,SMALLOFFICE WHOLEBUILDING - SM OFFICE VENTILATION,
 Controller:MechanicalVentilation,CONTROLLER MECHANICAL VENTILATION 9,ALWAYS ON DISCRETE,No,ZoneSum,1.00,1,ZONE SMALLOFFICE WHOLEBUILDING - SM OFFICE A END_A - STORY GROUND,SMALLOFFICE WHOLEBUILDING - SM OFFICE VENTILATION,
 Controller:MechanicalVentilation,CONTROLLER MECHANICAL VENTILATION 2,ALWAYS ON DISCRETE,No,ZoneSum,1.00,1,ZONE SMALLOFFICE WHOLEBUILDING - SM OFFICE A END_B - STORY GROUND,SMALLOFFICE WHOLEBUILDING - SM OFFICE VENTILATION,
 Controller:MechanicalVentilation,CONTROLLER MECHANICAL VENTILATION 4,ALWAYS ON DISCRETE,No,ZoneSum,1.00,1,ZONE SMALLOFFICE WHOLEBUILDING - SM OFFICE B  - STORY GROUND,SMALLOFFICE WHOLEBUILDING - SM OFFICE VENTILATION,
 Controller:MechanicalVentilation,CONTROLLER MECHANICAL VENTILATION 8,ALWAYS ON DISCRETE,No,ZoneSum,1.00,1,ZONE SMALLOFFICE WHOLEBUILDING - SM OFFICE B END_A - STORY GROUND,SMALLOFFICE WHOLEBUILDING - SM OFFICE VENTILATION,
 Controller:MechanicalVentilation,CONTROLLER MECHANICAL VENTILATION 1,ALWAYS ON DISCRETE,No,ZoneSum,1.00,1,ZONE SMALLOFFICE WHOLEBUILDING - SM OFFICE B END_B - STORY GROUND,SMALLOFFICE WHOLEBUILDING - SM OFFICE VENTILATION,
 Controller:MechanicalVentilation,CONTROLLER MECHANICAL VENTILATION 3,ALWAYS ON DISCRETE,No,ZoneSum,1.00,1,ZONE SMALLOFFICE WHOLEBUILDING - SM OFFICE C  - STORY GROUND,SMALLOFFICE WHOLEBUILDING - SM OFFICE VENTILATION,
 Controller:MechanicalVentilation,CONTROLLER MECHANICAL VENTILATION 5,ALWAYS ON DISCRETE,No,ZoneSum,1.00,1,ZONE SMALLOFFICE WHOLEBUILDING - SM OFFICE C END_A - STORY GROUND,SMALLOFFICE WHOLEBUILDING - SM OFFICE VENTILATION,
 Controller:MechanicalVentilation,CONTROLLER MECHANICAL VENTILATION 7,ALWAYS ON DISCRETE,No,ZoneSum,1.00,1,ZONE SMALLOFFICE WHOLEBUILDING - SM OFFICE C END_B - STORY GROUND,SMALLOFFICE WHOLEBUILDING - SM OFFICE VENTILATION,
 Component Sizing Information, Controller:OutdoorAir, ZONE SMALLOFFICE WHOLEBUILDING - SM OFFICE A  - STORY GROUND PSZ-AC OA SYSTEM CONTROLLER, Maximum Outdoor Air Flow Rate [m3/s], 1.30434
 Component Sizing Information, Controller:OutdoorAir, ZONE SMALLOFFICE WHOLEBUILDING - SM OFFICE A  - STORY GROUND PSZ-AC OA SYSTEM CONTROLLER, Minimum Outdoor Air Flow Rate [m3/s], 0.35434
 Component Sizing Information, AirLoopHVAC:UnitarySystem, ZONE SMALLOFFICE WHOLEBUILDING - SM OFFICE A  - STORY GROUND PSZ-AC UNITARY AC, Design Size Supply Air Flow Rate [m3/s], 1.30434
 Component Sizing Information, AirLoopHVAC:UnitarySystem, ZONE SMALLOFFICE WHOLEBUILDING - SM OFFICE A  - STORY GROUND PSZ-AC UNITARY AC, Design Size Heating Supply Air Flow Rate [m3/s], 1.30434
 Component Sizing Information, AirLoopHVAC:UnitarySystem, ZONE SMALLOFFICE WHOLEBUILDING - SM OFFICE A  - STORY GROUND PSZ-AC UNITARY AC, Design Size Cooling Supply Air Flow Rate [m3/s], 1.30434
 Component Sizing Information, AirLoopHVAC:UnitarySystem, ZONE SMALLOFFICE WHOLEBUILDING - SM OFFICE A  - STORY GROUND PSZ-AC UNITARY AC, User-Specified No Load Supply Air Flow Rate [m3/s], 0.00000
 Component Sizing Information, AirLoopHVAC:UnitarySystem, ZONE SMALLOFFICE WHOLEBUILDING - SM OFFICE A  - STORY GROUND PSZ-AC UNITARY AC, Design Size Nominal Cooling Capacity [W], 22829.14663
 Component Sizing Information, AirLoopHVAC:UnitarySystem, ZONE SMALLOFFICE WHOLEBUILDING - SM OFFICE A  - STORY GROUND PSZ-AC UNITARY AC, Design Size Nominal Heating Capacity [W], 53925.20341
 Component Sizing Information, AirLoopHVAC:UnitarySystem, ZONE SMALLOFFICE WHOLEBUILDING - SM OFFICE A  - STORY GROUND PSZ-AC UNITARY AC, Design Size Maximum Supply Air Temperature [C], 50.00000
 Component Sizing Information, AirLoopHVAC:UnitarySystem, ZONE SMALLOFFICE WHOLEBUILDING - SM OFFICE A  - STORY GROUND PSZ-AC UNITARY AC, User-Specified Maximum Supply Air Temperature [C], 80.00000
 Component Sizing Information, AirLoopHVAC:UnitarySystem, ZONE SMALLOFFICE WHOLEBUILDING - SM OFFICE A  - STORY GROUND PSZ-AC UNITARY AC, User-Specified Supplemental Heating Coil Nominal Capacity [W], 53925.20341
 Component Sizing Information, AirLoopHVAC:UnitarySystem, ZONE SMALLOFFICE WHOLEBUILDING - SM OFFICE A  - STORY GROUND PSZ-AC UNITARY AC, Fraction of Supply Air Flow That Goes Through the Controlling Zone, 1.00000
 Component Sizing Information, Coil:Cooling:DX:SingleSpeed, ZONE SMALLOFFICE WHOLEBUILDING - SM OFFICE A  - STORY GROUND PSZ-AC 1SPD DX AC CLG COIL 80KBTU/HR 10.1EER, Design Size Rated Air Flow Rate [m3/s], 1.30434
 Component Sizing Information, Coil:Cooling:DX:SingleSpeed, ZONE SMALLOFFICE WHOLEBUILDING - SM OFFICE A  - STORY GROUND PSZ-AC 1SPD DX AC CLG COIL 80KBTU/HR 10.1EER, Design Size Gross Rated Total Cooling Capacity [W], 22829.14663
 Component Sizing Information, Coil:Cooling:DX:SingleSpeed, ZONE SMALLOFFICE WHOLEBUILDING - SM OFFICE A  - STORY GROUND PSZ-AC 1SPD DX AC CLG COIL 80KBTU/HR 10.1EER, Design Size Gross Rated Sensible Heat Ratio, 0.80072
! <DX Cooling Coil Standard Rating Information>, Component Type, Component Name, Standard Rating (Net) Cooling Capacity {W}, Standard Rated Net COP {W/W}, EER {Btu/W-h}, SEER User {Btu/W-h}, SEER Standard {Btu/W-h}, IEER {Btu/W-h}
 DX Cooling Coil Standard Rating Information, Coil:Cooling:DX:SingleSpeed, ZONE SMALLOFFICE WHOLEBUILDING - SM OFFICE A  - STORY GROUND PSZ-AC 1SPD DX AC CLG COIL 80KBTU/HR 10.1EER, 21784.1, 2.90, 9.88, 10.41, 9.89, 9.88
 Component Sizing Information, Coil:Heating:Fuel, ZONE SMALLOFFICE WHOLEBUILDING - SM OFFICE A  - STORY GROUND PSZ-AC GAS HTG COIL, Design Size Nominal Capacity [W], 53925.20341
 Component Sizing Information, Fan:OnOff, ZONE SMALLOFFICE WHOLEBUILDING - SM OFFICE A  - STORY GROUND PSZ-AC FAN, Design Size Maximum Flow Rate [m3/s], 1.30434
 Component Sizing Information, Coil:Heating:Electric, ZONE SMALLOFFICE WHOLEBUILDING - SM OFFICE A  - STORY GROUND PSZ-AC ELECTRIC BACKUP HTG COIL, Design Size Nominal Capacity [W], 53925.20341
 Component Sizing Information, Controller:OutdoorAir, ZONE SMALLOFFICE WHOLEBUILDING - SM OFFICE A END_A - STORY GROUND PSZ-AC OA SYSTEM CONTROLLER, Maximum Outdoor Air Flow Rate [m3/s], 6.73461E-002
 Component Sizing Information, Controller:OutdoorAir, ZONE SMALLOFFICE WHOLEBUILDING - SM OFFICE A END_A - STORY GROUND PSZ-AC OA SYSTEM CONTROLLER, Minimum Outdoor Air Flow Rate [m3/s], 1.06188E-002
 Component Sizing Information, AirLoopHVAC:UnitarySystem, ZONE SMALLOFFICE WHOLEBUILDING - SM OFFICE A END_A - STORY GROUND PSZ-AC UNITARY AC, Design Size Supply Air Flow Rate [m3/s], 6.73461E-002
 Component Sizing Information, AirLoopHVAC:UnitarySystem, ZONE SMALLOFFICE WHOLEBUILDING - SM OFFICE A END_A - STORY GROUND PSZ-AC UNITARY AC, Design Size Heating Supply Air Flow Rate [m3/s], 6.73461E-002
 Component Sizing Information, AirLoopHVAC:UnitarySystem, ZONE SMALLOFFICE WHOLEBUILDING - SM OFFICE A END_A - STORY GROUND PSZ-AC UNITARY AC, Design Size Cooling Supply Air Flow Rate [m3/s], 6.73461E-002
 Component Sizing Information, AirLoopHVAC:UnitarySystem, ZONE SMALLOFFICE WHOLEBUILDING - SM OFFICE A END_A - STORY GROUND PSZ-AC UNITARY AC, User-Specified No Load Supply Air Flow Rate [m3/s], 0.00000
 Component Sizing Information, AirLoopHVAC:UnitarySystem, ZONE SMALLOFFICE WHOLEBUILDING - SM OFFICE A END_A - STORY GROUND PSZ-AC UNITARY AC, Design Size Nominal Cooling Capacity [W], 1114.81746
 Component Sizing Information, AirLoopHVAC:UnitarySystem, ZONE SMALLOFFICE WHOLEBUILDING - SM OFFICE A END_A - STORY GROUND PSZ-AC UNITARY AC, Design Size Nominal Heating Capacity [W], 2614.71804
 Component Sizing Information, AirLoopHVAC:UnitarySystem, ZONE SMALLOFFICE WHOLEBUILDING - SM OFFICE A END_A - STORY GROUND PSZ-AC UNITARY AC, Design Size Maximum Supply Air Temperature [C], 50.00000
 Component Sizing Information, AirLoopHVAC:UnitarySystem, ZONE SMALLOFFICE WHOLEBUILDING - SM OFFICE A END_A - STORY GROUND PSZ-AC UNITARY AC, User-Specified Maximum Supply Air Temperature [C], 80.00000
 Component Sizing Information, AirLoopHVAC:UnitarySystem, ZONE SMALLOFFICE WHOLEBUILDING - SM OFFICE A END_A - STORY GROUND PSZ-AC UNITARY AC, User-Specified Supplemental Heating Coil Nominal Capacity [W], 2614.71804
 Component Sizing Information, AirLoopHVAC:UnitarySystem, ZONE SMALLOFFICE WHOLEBUILDING - SM OFFICE A END_A - STORY GROUND PSZ-AC UNITARY AC, Fraction of Supply Air Flow That Goes Through the Controlling Zone, 1.00000
 Component Sizing Information, Coil:Cooling:DX:SingleSpeed, ZONE SMALLOFFICE WHOLEBUILDING - SM OFFICE A END_A - STORY GROUND PSZ-AC 1SPD DX AC CLG COIL 4KBTU/HR 13.0SEER, Design Size Rated Air Flow Rate [m3/s], 6.73461E-002
 Component Sizing Information, Coil:Cooling:DX:SingleSpeed, ZONE SMALLOFFICE WHOLEBUILDING - SM OFFICE A END_A - STORY GROUND PSZ-AC 1SPD DX AC CLG COIL 4KBTU/HR 13.0SEER, Design Size Gross Rated Total Cooling Capacity [W], 1114.81746
 Component Sizing Information, Coil:Cooling:DX:SingleSpeed, ZONE SMALLOFFICE WHOLEBUILDING - SM OFFICE A END_A - STORY GROUND PSZ-AC 1SPD DX AC CLG COIL 4KBTU/HR 13.0SEER, Design Size Gross Rated Sensible Heat Ratio, 0.80066
 DX Cooling Coil Standard Rating Information, Coil:Cooling:DX:SingleSpeed, ZONE SMALLOFFICE WHOLEBUILDING - SM OFFICE A END_A - STORY GROUND PSZ-AC 1SPD DX AC CLG COIL 4KBTU/HR 13.0SEER, 1061.0, 3.15, 10.75, 11.31, 10.75, 10.58
 Component Sizing Information, Coil:Heating:Fuel, ZONE SMALLOFFICE WHOLEBUILDING - SM OFFICE A END_A - STORY GROUND PSZ-AC GAS HTG COIL, Design Size Nominal Capacity [W], 2614.71804
 Component Sizing Information, Fan:OnOff, ZONE SMALLOFFICE WHOLEBUILDING - SM OFFICE A END_A - STORY GROUND PSZ-AC FAN, Design Size Maximum Flow Rate [m3/s], 6.73461E-002
 Component Sizing Information, Coil:Heating:Electric, ZONE SMALLOFFICE WHOLEBUILDING - SM OFFICE A END_A - STORY GROUND PSZ-AC ELECTRIC BACKUP HTG COIL, Design Size Nominal Capacity [W], 2614.71804
 Component Sizing Information, Controller:OutdoorAir, ZONE SMALLOFFICE WHOLEBUILDING - SM OFFICE A END_B - STORY GROUND PSZ-AC OA SYSTEM CONTROLLER, Maximum Outdoor Air Flow Rate [m3/s], 5.75432E-002
 Component Sizing Information, Controller:OutdoorAir, ZONE SMALLOFFICE WHOLEBUILDING - SM OFFICE A END_B - STORY GROUND PSZ-AC OA SYSTEM CONTROLLER, Minimum Outdoor Air Flow Rate [m3/s], 1.06188E-002
 Component Sizing Information, AirLoopHVAC:UnitarySystem, ZONE SMALLOFFICE WHOLEBUILDING - SM OFFICE A END_B - STORY GROUND PSZ-AC UNITARY AC, Design Size Supply Air Flow Rate [m3/s], 5.75432E-002
 Component Sizing Information, AirLoopHVAC:UnitarySystem, ZONE SMALLOFFICE WHOLEBUILDING - SM OFFICE A END_B - STORY GROUND PSZ-AC UNITARY AC, Design Size Heating Supply Air Flow Rate [m3/s], 5.75432E-002
 Component Sizing Information, AirLoopHVAC:UnitarySystem, ZONE SMALLOFFICE WHOLEBUILDING - SM OFFICE A END_B - STORY GROUND PSZ-AC UNITARY AC, Design Size Cooling Supply Air Flow Rate [m3/s], 5.75432E-002
 Component Sizing Information, AirLoopHVAC:UnitarySystem, ZONE SMALLOFFICE WHOLEBUILDING - SM OFFICE A END_B - STORY GROUND PSZ-AC UNITARY AC, User-Specified No Load Supply Air Flow Rate [m3/s], 0.00000
 Component Sizing Information, AirLoopHVAC:UnitarySystem, ZONE SMALLOFFICE WHOLEBUILDING - SM OFFICE A END_B - STORY GROUND PSZ-AC UNITARY AC, Design Size Nominal Cooling Capacity [W], 952.54492
 Component Sizing Information, AirLoopHVAC:UnitarySystem, ZONE SMALLOFFICE WHOLEBUILDING - SM OFFICE A END_B - STORY GROUND PSZ-AC UNITARY AC, Design Size Nominal Heating Capacity [W], 2267.44205
 Component Sizing Information, AirLoopHVAC:UnitarySystem, ZONE SMALLOFFICE WHOLEBUILDING - SM OFFICE A END_B - STORY GROUND PSZ-AC UNITARY AC, Design Size Maximum Supply Air Temperature [C], 50.00000
 Component Sizing Information, AirLoopHVAC:UnitarySystem, ZONE SMALLOFFICE WHOLEBUILDING - SM OFFICE A END_B - STORY GROUND PSZ-AC UNITARY AC, User-Specified Maximum Supply Air Temperature [C], 80.00000
 Component Sizing Information, AirLoopHVAC:UnitarySystem, ZONE SMALLOFFICE WHOLEBUILDING - SM OFFICE A END_B - STORY GROUND PSZ-AC UNITARY AC, User-Specified Supplemental Heating Coil Nominal Capacity [W], 2267.44205
 Component Sizing Information, AirLoopHVAC:UnitarySystem, ZONE SMALLOFFICE WHOLEBUILDING - SM OFFICE A END_B - STORY GROUND PSZ-AC UNITARY AC, Fraction of Supply Air Flow That Goes Through the Controlling Zone, 1.00000
 Component Sizing Information, Coil:Cooling:DX:SingleSpeed, ZONE SMALLOFFICE WHOLEBUILDING - SM OFFICE A END_B - STORY GROUND PSZ-AC 1SPD DX AC CLG COIL 3KBTU/HR 13.0SEER, Design Size Rated Air Flow Rate [m3/s], 5.75432E-002
 Component Sizing Information, Coil:Cooling:DX:SingleSpeed, ZONE SMALLOFFICE WHOLEBUILDING - SM OFFICE A END_B - STORY GROUND PSZ-AC 1SPD DX AC CLG COIL 3KBTU/HR 13.0SEER, Design Size Gross Rated Total Cooling Capacity [W], 952.54492
 Component Sizing Information, Coil:Cooling:DX:SingleSpeed, ZONE SMALLOFFICE WHOLEBUILDING - SM OFFICE A END_B - STORY GROUND PSZ-AC 1SPD DX AC CLG COIL 3KBTU/HR 13.0SEER, Design Size Gross Rated Sensible Heat Ratio, 0.80066
 DX Cooling Coil Standard Rating Information, Coil:Cooling:DX:SingleSpeed, ZONE SMALLOFFICE WHOLEBUILDING - SM OFFICE A END_B - STORY GROUND PSZ-AC 1SPD DX AC CLG COIL 3KBTU/HR 13.0SEER, 906.5, 3.15, 10.75, 11.31, 10.75, 10.58
 Component Sizing Information, Coil:Heating:Fuel, ZONE SMALLOFFICE WHOLEBUILDING - SM OFFICE A END_B - STORY GROUND PSZ-AC GAS HTG COIL, Design Size Nominal Capacity [W], 2267.44205
 Component Sizing Information, Fan:OnOff, ZONE SMALLOFFICE WHOLEBUILDING - SM OFFICE A END_B - STORY GROUND PSZ-AC FAN, Design Size Maximum Flow Rate [m3/s], 5.75432E-002
 Component Sizing Information, Coil:Heating:Electric, ZONE SMALLOFFICE WHOLEBUILDING - SM OFFICE A END_B - STORY GROUND PSZ-AC ELECTRIC BACKUP HTG COIL, Design Size Nominal Capacity [W], 2267.44205
 Component Sizing Information, Controller:OutdoorAir, ZONE SMALLOFFICE WHOLEBUILDING - SM OFFICE B  - STORY GROUND PSZ-AC OA SYSTEM CONTROLLER, Maximum Outdoor Air Flow Rate [m3/s], 12.08415
 Component Sizing Information, Controller:OutdoorAir, ZONE SMALLOFFICE WHOLEBUILDING - SM OFFICE B  - STORY GROUND PSZ-AC OA SYSTEM CONTROLLER, Minimum Outdoor Air Flow Rate [m3/s], 7.64650
 Component Sizing Information, AirLoopHVAC:UnitarySystem, ZONE SMALLOFFICE WHOLEBUILDING - SM OFFICE B  - STORY GROUND PSZ-AC UNITARY AC, Design Size Supply Air Flow Rate [m3/s], 12.08415
 Component Sizing Information, AirLoopHVAC:UnitarySystem, ZONE SMALLOFFICE WHOLEBUILDING - SM OFFICE B  - STORY GROUND PSZ-AC UNITARY AC, Design Size Heating Supply Air Flow Rate [m3/s], 12.08415
 Component Sizing Information, AirLoopHVAC:UnitarySystem, ZONE SMALLOFFICE WHOLEBUILDING - SM OFFICE B  - STORY GROUND PSZ-AC UNITARY AC, Design Size Cooling Supply Air Flow Rate [m3/s], 12.08415
 Component Sizing Information, AirLoopHVAC:UnitarySystem, ZONE SMALLOFFICE WHOLEBUILDING - SM OFFICE B  - STORY GROUND PSZ-AC UNITARY AC, User-Specified No Load Supply Air Flow Rate [m3/s], 0.00000
 Component Sizing Information, AirLoopHVAC:UnitarySystem, ZONE SMALLOFFICE WHOLEBUILDING - SM OFFICE B  - STORY GROUND PSZ-AC UNITARY AC, Design Size Nominal Cooling Capacity [W], 245686.24814
 Component Sizing Information, AirLoopHVAC:UnitarySystem, ZONE SMALLOFFICE WHOLEBUILDING - SM OFFICE B  - STORY GROUND PSZ-AC UNITARY AC, Design Size Nominal Heating Capacity [W], 590846.17440
 Component Sizing Information, AirLoopHVAC:UnitarySystem, ZONE SMALLOFFICE WHOLEBUILDING - SM OFFICE B  - STORY GROUND PSZ-AC UNITARY AC, Design Size Maximum Supply Air Temperature [C], 50.00000
 Component Sizing Information, AirLoopHVAC:UnitarySystem, ZONE SMALLOFFICE WHOLEBUILDING - SM OFFICE B  - STORY GROUND PSZ-AC UNITARY AC, User-Specified Maximum Supply Air Temperature [C], 80.00000
 Component Sizing Information, AirLoopHVAC:UnitarySystem, ZONE SMALLOFFICE WHOLEBUILDING - SM OFFICE B  - STORY GROUND PSZ-AC UNITARY AC, User-Specified Supplemental Heating Coil Nominal Capacity [W], 590846.17440
 Component Sizing Information, AirLoopHVAC:UnitarySystem, ZONE SMALLOFFICE WHOLEBUILDING - SM OFFICE B  - STORY GROUND PSZ-AC UNITARY AC, Fraction of Supply Air Flow That Goes Through the Controlling Zone, 1.00000
 Component Sizing Information, Coil:Cooling:DX:SingleSpeed, ZONE SMALLOFFICE WHOLEBUILDING - SM OFFICE B  - STORY GROUND PSZ-AC 1SPD DX AC CLG COIL 833KBTU/HR 9.0EER, Design Size Rated Air Flow Rate [m3/s], 12.08415
 Component Sizing Information, Coil:Cooling:DX:SingleSpeed, ZONE SMALLOFFICE WHOLEBUILDING - SM OFFICE B  - STORY GROUND PSZ-AC 1SPD DX AC CLG COIL 833KBTU/HR 9.0EER, Design Size Gross Rated Total Cooling Capacity [W], 245686.24814
 Component Sizing Information, Coil:Cooling:DX:SingleSpeed, ZONE SMALLOFFICE WHOLEBUILDING - SM OFFICE B  - STORY GROUND PSZ-AC 1SPD DX AC CLG COIL 833KBTU/HR 9.0EER, Design Size Gross Rated Sensible Heat Ratio, 0.76934
 DX Cooling Coil Standard Rating Information, Coil:Cooling:DX:SingleSpeed, ZONE SMALLOFFICE WHOLEBUILDING - SM OFFICE B  - STORY GROUND PSZ-AC 1SPD DX AC CLG COIL 833KBTU/HR 9.0EER, 235949.8, 2.69, 9.19, 9.69, 9.21, 9.39
 Component Sizing Information, Coil:Heating:Fuel, ZONE SMALLOFFICE WHOLEBUILDING - SM OFFICE B  - STORY GROUND PSZ-AC GAS HTG COIL, Design Size Nominal Capacity [W], 590846.17440
 Component Sizing Information, Fan:OnOff, ZONE SMALLOFFICE WHOLEBUILDING - SM OFFICE B  - STORY GROUND PSZ-AC FAN, Design Size Maximum Flow Rate [m3/s], 12.08415
 Component Sizing Information, Coil:Heating:Electric, ZONE SMALLOFFICE WHOLEBUILDING - SM OFFICE B  - STORY GROUND PSZ-AC ELECTRIC BACKUP HTG COIL, Design Size Nominal Capacity [W], 590846.17440
 Component Sizing Information, Controller:OutdoorAir, ZONE SMALLOFFICE WHOLEBUILDING - SM OFFICE B END_A - STORY GROUND PSZ-AC OA SYSTEM CONTROLLER, Maximum Outdoor Air Flow Rate [m3/s], 1.04809
 Component Sizing Information, Controller:OutdoorAir, ZONE SMALLOFFICE WHOLEBUILDING - SM OFFICE B END_A - STORY GROUND PSZ-AC OA SYSTEM CONTROLLER, Minimum Outdoor Air Flow Rate [m3/s], 0.22915
 Component Sizing Information, AirLoopHVAC:UnitarySystem, ZONE SMALLOFFICE WHOLEBUILDING - SM OFFICE B END_A - STORY GROUND PSZ-AC UNITARY AC, Design Size Supply Air Flow Rate [m3/s], 1.04809
 Component Sizing Information, AirLoopHVAC:UnitarySystem, ZONE SMALLOFFICE WHOLEBUILDING - SM OFFICE B END_A - STORY GROUND PSZ-AC UNITARY AC, Design Size Heating Supply Air Flow Rate [m3/s], 1.04809
 Component Sizing Information, AirLoopHVAC:UnitarySystem, ZONE SMALLOFFICE WHOLEBUILDING - SM OFFICE B END_A - STORY GROUND PSZ-AC UNITARY AC, Design Size Cooling Supply Air Flow Rate [m3/s], 1.04809
 Component Sizing Information, AirLoopHVAC:UnitarySystem, ZONE SMALLOFFICE WHOLEBUILDING - SM OFFICE B END_A - STORY GROUND PSZ-AC UNITARY AC, User-Specified No Load Supply Air Flow Rate [m3/s], 0.00000
 Component Sizing Information, AirLoopHVAC:UnitarySystem, ZONE SMALLOFFICE WHOLEBUILDING - SM OFFICE B END_A - STORY GROUND PSZ-AC UNITARY AC, Design Size Nominal Cooling Capacity [W], 17673.95538
 Component Sizing Information, AirLoopHVAC:UnitarySystem, ZONE SMALLOFFICE WHOLEBUILDING - SM OFFICE B END_A - STORY GROUND PSZ-AC UNITARY AC, Design Size Nominal Heating Capacity [W], 42056.84117
 Component Sizing Information, AirLoopHVAC:UnitarySystem, ZONE SMALLOFFICE WHOLEBUILDING - SM OFFICE B END_A - STORY GROUND PSZ-AC UNITARY AC, Design Size Maximum Supply Air Temperature [C], 50.00000
 Component Sizing Information, AirLoopHVAC:UnitarySystem, ZONE SMALLOFFICE WHOLEBUILDING - SM OFFICE B END_A - STORY GROUND PSZ-AC UNITARY AC, User-Specified Maximum Supply Air Temperature [C], 80.00000
 Component Sizing Information, AirLoopHVAC:UnitarySystem, ZONE SMALLOFFICE WHOLEBUILDING - SM OFFICE B END_A - STORY GROUND PSZ-AC UNITARY AC, User-Specified Supplemental Heating Coil Nominal Capacity [W], 42056.84117
 Component Sizing Information, AirLoopHVAC:UnitarySystem, ZONE SMALLOFFICE WHOLEBUILDING - SM OFFICE B END_A - STORY GROUND PSZ-AC UNITARY AC, Fraction of Supply Air Flow That Goes Through the Controlling Zone, 1.00000
 Component Sizing Information, Coil:Cooling:DX:SingleSpeed, ZONE SMALLOFFICE WHOLEBUILDING - SM OFFICE B END_A - STORY GROUND PSZ-AC 1SPD DX AC CLG COIL 62KBTU/HR 13.0SEER, Design Size Rated Air Flow Rate [m3/s], 1.04809
 Component Sizing Information, Coil:Cooling:DX:SingleSpeed, ZONE SMALLOFFICE WHOLEBUILDING - SM OFFICE B END_A - STORY GROUND PSZ-AC 1SPD DX AC CLG COIL 62KBTU/HR 13.0SEER, Design Size Gross Rated Total Cooling Capacity [W], 17673.95538
 Component Sizing Information, Coil:Cooling:DX:SingleSpeed, ZONE SMALLOFFICE WHOLEBUILDING - SM OFFICE B END_A - STORY GROUND PSZ-AC 1SPD DX AC CLG COIL 62KBTU/HR 13.0SEER, Design Size Gross Rated Sensible Heat Ratio, 0.80091
 DX Cooling Coil Standard Rating Information, Coil:Cooling:DX:SingleSpeed, ZONE SMALLOFFICE WHOLEBUILDING - SM OFFICE B END_A - STORY GROUND PSZ-AC 1SPD DX AC CLG COIL 62KBTU/HR 13.0SEER, 16835.3, 3.16, 10.79, 11.35, 10.79, 10.64
 Component Sizing Information, Coil:Heating:Fuel, ZONE SMALLOFFICE WHOLEBUILDING - SM OFFICE B END_A - STORY GROUND PSZ-AC GAS HTG COIL, Design Size Nominal Capacity [W], 42056.84117
 Component Sizing Information, Fan:OnOff, ZONE SMALLOFFICE WHOLEBUILDING - SM OFFICE B END_A - STORY GROUND PSZ-AC FAN, Design Size Maximum Flow Rate [m3/s], 1.04809
 Component Sizing Information, Coil:Heating:Electric, ZONE SMALLOFFICE WHOLEBUILDING - SM OFFICE B END_A - STORY GROUND PSZ-AC ELECTRIC BACKUP HTG COIL, Design Size Nominal Capacity [W], 42056.84117
 Component Sizing Information, Controller:OutdoorAir, ZONE SMALLOFFICE WHOLEBUILDING - SM OFFICE B END_B - STORY GROUND PSZ-AC OA SYSTEM CONTROLLER, Maximum Outdoor Air Flow Rate [m3/s], 0.86335
 Component Sizing Information, Controller:OutdoorAir, ZONE SMALLOFFICE WHOLEBUILDING - SM OFFICE B END_B - STORY GROUND PSZ-AC OA SYSTEM CONTROLLER, Minimum Outdoor Air Flow Rate [m3/s], 0.22915
 Component Sizing Information, AirLoopHVAC:UnitarySystem, ZONE SMALLOFFICE WHOLEBUILDING - SM OFFICE B END_B - STORY GROUND PSZ-AC UNITARY AC, Design Size Supply Air Flow Rate [m3/s], 0.86335
 Component Sizing Information, AirLoopHVAC:UnitarySystem, ZONE SMALLOFFICE WHOLEBUILDING - SM OFFICE B END_B - STORY GROUND PSZ-AC UNITARY AC, Design Size Heating Supply Air Flow Rate [m3/s], 0.86335
 Component Sizing Information, AirLoopHVAC:UnitarySystem, ZONE SMALLOFFICE WHOLEBUILDING - SM OFFICE B END_B - STORY GROUND PSZ-AC UNITARY AC, Design Size Cooling Supply Air Flow Rate [m3/s], 0.86335
 Component Sizing Information, AirLoopHVAC:UnitarySystem, ZONE SMALLOFFICE WHOLEBUILDING - SM OFFICE B END_B - STORY GROUND PSZ-AC UNITARY AC, User-Specified No Load Supply Air Flow Rate [m3/s], 0.00000
 Component Sizing Information, AirLoopHVAC:UnitarySystem, ZONE SMALLOFFICE WHOLEBUILDING - SM OFFICE B END_B - STORY GROUND PSZ-AC UNITARY AC, Design Size Nominal Cooling Capacity [W], 14291.51576
 Component Sizing Information, AirLoopHVAC:UnitarySystem, ZONE SMALLOFFICE WHOLEBUILDING - SM OFFICE B END_B - STORY GROUND PSZ-AC UNITARY AC, Design Size Nominal Heating Capacity [W], 35515.16449
 Component Sizing Information, AirLoopHVAC:UnitarySystem, ZONE SMALLOFFICE WHOLEBUILDING - SM OFFICE B END_B - STORY GROUND PSZ-AC UNITARY AC, Design Size Maximum Supply Air Temperature [C], 50.00000
 Component Sizing Information, AirLoopHVAC:UnitarySystem, ZONE SMALLOFFICE WHOLEBUILDING - SM OFFICE B END_B - STORY GROUND PSZ-AC UNITARY AC, User-Specified Maximum Supply Air Temperature [C], 80.00000
 Component Sizing Information, AirLoopHVAC:UnitarySystem, ZONE SMALLOFFICE WHOLEBUILDING - SM OFFICE B END_B - STORY GROUND PSZ-AC UNITARY AC, User-Specified Supplemental Heating Coil Nominal Capacity [W], 35515.16449
 Component Sizing Information, AirLoopHVAC:UnitarySystem, ZONE SMALLOFFICE WHOLEBUILDING - SM OFFICE B END_B - STORY GROUND PSZ-AC UNITARY AC, Fraction of Supply Air Flow That Goes Through the Controlling Zone, 1.00000
 Component Sizing Information, Coil:Cooling:DX:SingleSpeed, ZONE SMALLOFFICE WHOLEBUILDING - SM OFFICE B END_B - STORY GROUND PSZ-AC 1SPD DX AC CLG COIL 49KBTU/HR 13.0SEER, Design Size Rated Air Flow Rate [m3/s], 0.86335
 Component Sizing Information, Coil:Cooling:DX:SingleSpeed, ZONE SMALLOFFICE WHOLEBUILDING - SM OFFICE B END_B - STORY GROUND PSZ-AC 1SPD DX AC CLG COIL 49KBTU/HR 13.0SEER, Design Size Gross Rated Total Cooling Capacity [W], 14291.51576
 Component Sizing Information, Coil:Cooling:DX:SingleSpeed, ZONE SMALLOFFICE WHOLEBUILDING - SM OFFICE B END_B - STORY GROUND PSZ-AC 1SPD DX AC CLG COIL 49KBTU/HR 13.0SEER, Design Size Gross Rated Sensible Heat Ratio, 0.80066
 DX Cooling Coil Standard Rating Information, Coil:Cooling:DX:SingleSpeed, ZONE SMALLOFFICE WHOLEBUILDING - SM OFFICE B END_B - STORY GROUND PSZ-AC 1SPD DX AC CLG COIL 49KBTU/HR 13.0SEER, 13601.1, 3.15, 10.75, 11.31, 10.75, 10.58
 Component Sizing Information, Coil:Heating:Fuel, ZONE SMALLOFFICE WHOLEBUILDING - SM OFFICE B END_B - STORY GROUND PSZ-AC GAS HTG COIL, Design Size Nominal Capacity [W], 35515.16449
 Component Sizing Information, Fan:OnOff, ZONE SMALLOFFICE WHOLEBUILDING - SM OFFICE B END_B - STORY GROUND PSZ-AC FAN, Design Size Maximum Flow Rate [m3/s], 0.86335
 Component Sizing Information, Coil:Heating:Electric, ZONE SMALLOFFICE WHOLEBUILDING - SM OFFICE B END_B - STORY GROUND PSZ-AC ELECTRIC BACKUP HTG COIL, Design Size Nominal Capacity [W], 35515.16449
 Component Sizing Information, Controller:OutdoorAir, ZONE SMALLOFFICE WHOLEBUILDING - SM OFFICE C  - STORY GROUND PSZ-AC OA SYSTEM CONTROLLER, Maximum Outdoor Air Flow Rate [m3/s], 0.85375
[...]
 DX Cooling Coil Standard Rating Information, Coil:Cooling:DX:SingleSpeed, ZONE SMALLOFFICE WHOLEBUILDING - SM OFFICE C END_A - STORY GROUND PSZ-AC 1SPD DX AC CLG COIL 3KBTU/HR 13.0SEER, 923.1, 3.16, 10.77, 11.33, 10.76, 10.60
 Component Sizing Information, Coil:Heating:Fuel, ZONE SMALLOFFICE WHOLEBUILDING - SM OFFICE C END_A - STORY GROUND PSZ-AC GAS HTG COIL, Design Size Nominal Capacity [W], 2287.56899
 Component Sizing Information, Fan:OnOff, ZONE SMALLOFFICE WHOLEBUILDING - SM OFFICE C END_A - STORY GROUND PSZ-AC FAN, Design Size Maximum Flow Rate [m3/s], 5.81114E-002
 Component Sizing Information, Coil:Heating:Electric, ZONE SMALLOFFICE WHOLEBUILDING - SM OFFICE C END_A - STORY GROUND PSZ-AC ELECTRIC BACKUP HTG COIL, Design Size Nominal Capacity [W], 2287.56899
 Component Sizing Information, Controller:OutdoorAir, ZONE SMALLOFFICE WHOLEBUILDING - SM OFFICE C END_B - STORY GROUND PSZ-AC OA SYSTEM CONTROLLER, Maximum Outdoor Air Flow Rate [m3/s], 4.65929E-002
 Component Sizing Information, Controller:OutdoorAir, ZONE SMALLOFFICE WHOLEBUILDING - SM OFFICE C END_B - STORY GROUND PSZ-AC OA SYSTEM CONTROLLER, Minimum Outdoor Air Flow Rate [m3/s], 1.06188E-002
 Component Sizing Information, AirLoopHVAC:UnitarySystem, ZONE SMALLOFFICE WHOLEBUILDING - SM OFFICE C END_B - STORY GROUND PSZ-AC UNITARY AC, Design Size Supply Air Flow Rate [m3/s], 4.65929E-002
 Component Sizing Information, AirLoopHVAC:UnitarySystem, ZONE SMALLOFFICE WHOLEBUILDING - SM OFFICE C END_B - STORY GROUND PSZ-AC UNITARY AC, Design Size Heating Supply Air Flow Rate [m3/s], 4.65929E-002
 Component Sizing Information, AirLoopHVAC:UnitarySystem, ZONE SMALLOFFICE WHOLEBUILDING - SM OFFICE C END_B - STORY GROUND PSZ-AC UNITARY AC, Design Size Cooling Supply Air Flow Rate [m3/s], 4.65929E-002
 Component Sizing Information, AirLoopHVAC:UnitarySystem, ZONE SMALLOFFICE WHOLEBUILDING - SM OFFICE C END_B - STORY GROUND PSZ-AC UNITARY AC, User-Specified No Load Supply Air Flow Rate [m3/s], 0.00000
 Component Sizing Information, AirLoopHVAC:UnitarySystem, ZONE SMALLOFFICE WHOLEBUILDING - SM OFFICE C END_B - STORY GROUND PSZ-AC UNITARY AC, Design Size Nominal Cooling Capacity [W], 771.27716
 Component Sizing Information, AirLoopHVAC:UnitarySystem, ZONE SMALLOFFICE WHOLEBUILDING - SM OFFICE C END_B - STORY GROUND PSZ-AC UNITARY AC, Design Size Nominal Heating Capacity [W], 1879.51594
 Component Sizing Information, AirLoopHVAC:UnitarySystem, ZONE SMALLOFFICE WHOLEBUILDING - SM OFFICE C END_B - STORY GROUND PSZ-AC UNITARY AC, Design Size Maximum Supply Air Temperature [C], 50.00000
 Component Sizing Information, AirLoopHVAC:UnitarySystem, ZONE SMALLOFFICE WHOLEBUILDING - SM OFFICE C END_B - STORY GROUND PSZ-AC UNITARY AC, User-Specified Maximum Supply Air Temperature [C], 80.00000
 Component Sizing Information, AirLoopHVAC:UnitarySystem, ZONE SMALLOFFICE WHOLEBUILDING - SM OFFICE C END_B - STORY GROUND PSZ-AC UNITARY AC, User-Specified Supplemental Heating Coil Nominal Capacity [W], 1879.51594
 Component Sizing Information, AirLoopHVAC:UnitarySystem, ZONE SMALLOFFICE WHOLEBUILDING - SM OFFICE C END_B - STORY GROUND PSZ-AC UNITARY AC, Fraction of Supply Air Flow That Goes Through the Controlling Zone, 1.00000
 Component Sizing Information, Coil:Cooling:DX:SingleSpeed, ZONE SMALLOFFICE WHOLEBUILDING - SM OFFICE C END_B - STORY GROUND PSZ-AC 1SPD DX AC CLG COIL 3KBTU/HR 13.0SEER, Design Size Rated Air Flow Rate [m3/s], 4.65929E-002
 Component Sizing Information, Coil:Cooling:DX:SingleSpeed, ZONE SMALLOFFICE WHOLEBUILDING - SM OFFICE C END_B - STORY GROUND PSZ-AC 1SPD DX AC CLG COIL 3KBTU/HR 13.0SEER, Design Size Gross Rated Total Cooling Capacity [W], 771.27716
 Component Sizing Information, Coil:Cooling:DX:SingleSpeed, ZONE SMALLOFFICE WHOLEBUILDING - SM OFFICE C END_B - STORY GROUND PSZ-AC 1SPD DX AC CLG COIL 3KBTU/HR 13.0SEER, Design Size Gross Rated Sensible Heat Ratio, 0.80066
 DX Cooling Coil Standard Rating Information, Coil:Cooling:DX:SingleSpeed, ZONE SMALLOFFICE WHOLEBUILDING - SM OFFICE C END_B - STORY GROUND PSZ-AC 1SPD DX AC CLG COIL 3KBTU/HR 13.0SEER, 734.0, 3.15, 10.75, 11.31, 10.75, 10.58
 Component Sizing Information, Coil:Heating:Fuel, ZONE SMALLOFFICE WHOLEBUILDING - SM OFFICE C END_B - STORY GROUND PSZ-AC GAS HTG COIL, Design Size Nominal Capacity [W], 1879.51594
 Component Sizing Information, Fan:OnOff, ZONE SMALLOFFICE WHOLEBUILDING - SM OFFICE C END_B - STORY GROUND PSZ-AC FAN, Design Size Maximum Flow Rate [m3/s], 4.65929E-002
 Component Sizing Information, Coil:Heating:Electric, ZONE SMALLOFFICE WHOLEBUILDING - SM OFFICE C END_B - STORY GROUND PSZ-AC ELECTRIC BACKUP HTG COIL, Design Size Nominal Capacity [W], 1879.51594
Water Heater Information,WaterHeater:Mixed,107GAL NATURALGAS WATER HEATER - 107KBTU/HR 0.808 THERM EFF,0.4066,31485.0,1.295,0.5404
 Component Sizing Information, PlantLoop, HOT WATER LOOP, Initial Maximum Loop Flow Rate [m3/s], 0.00000
 Component Sizing Information, PlantLoop, HOT WATER LOOP, Initial Plant Loop Volume [m3], 0.00000
 Component Sizing Information, Pump:VariableSpeed, HOT WATER LOOP PUMP, Initial Design Flow Rate [m3/s], -99999.00000
 Component Sizing Information, Pump:VariableSpeed, HOT WATER LOOP PUMP, Initial Design Power Consumption [W], 0.00000
 Component Sizing Information, Boiler:HotWater, BOILER, Initial Design Size Nominal Capacity [W], 0.00000
 Component Sizing Information, Boiler:HotWater, BOILER, Initial Design Size Design Water Flow Rate [m3/s], 0.00000
 Component Sizing Information, PlantLoop, OFFICE SHARED SERVICE WATER LOOP, Initial Maximum Loop Flow Rate [m3/s], 1.07585E-004
 Component Sizing Information, PlantLoop, OFFICE SHARED SERVICE WATER LOOP, Initial Plant Loop Volume [m3], 1.29102E-002
 Component Sizing Information, Pump:ConstantSpeed, OFFICE SHARED SERVICE WATER LOOP CIRCULATOR PUMP, Initial Design Flow Rate [m3/s], 1.07585E-004
 Component Sizing Information, Pump:ConstantSpeed, OFFICE SHARED SERVICE WATER LOOP CIRCULATOR PUMP, Initial Design Power Consumption [W], 4.99735
 Component Sizing Information, WaterHeater:Mixed, 107GAL NATURALGAS WATER HEATER - 107KBTU/HR 0.808 THERM EFF, Initial Use Side Design Flow Rate [m3/s], 1.07585E-004
! <Environment>,Environment Name,Environment Type, Start Date, End Date, Start DayOfWeek, Duration {#days}, Source:Start DayOfWeek,  Use Daylight Saving, Use Holidays, Apply Weekend Holiday Rule,  Use Rain Values, Use Snow Values, Sky Temperature Model
! <Environment:Special Days>, Special Day Name, Special Day Type, Source, Start Date, Duration {#days}
! <Environment:Daylight Saving>, Daylight Saving Indicator, Source, Start Date, End Date
! <Environment:WarmupDays>, NumberofWarmupDays
Environment,RUN PERIOD 1,WeatherFileRunPeriod,01/01/2019,12/31/2019,Tuesday,365,Use RunPeriod Specified Day,No,No,No,Yes,Yes,Clark and Allen
Environment:Daylight Saving,No,RunPeriod Object
! <Environment:Design Day Data>, Max Dry-Bulb Temp {C}, Temp Range {dC}, Temp Range Ind Type, Hum Ind Type, Hum Ind Value at Max Temp, Hum Ind Units, Pressure {Pa}, Wind Direction {deg CW from N}, Wind Speed {m/s}, Clearness, Rain, Snow
! <Environment:Design Day Misc>,DayOfYear,ASHRAE A Coeff,ASHRAE B Coeff,ASHRAE C Coeff,Solar Constant-Annual Variation,Eq of Time {minutes}, Solar Declination Angle {deg}, Solar Model
Environment:Design Day Data,27.70,7.40,DefaultMultipliers,Wetbulb,18.30,{C},101301,290,4.9,0.00,No,No
Environment:Design Day Misc,233,1106.3,0.2000,0.1216,1.0,-3.33,12.4,ASHRAETau
Environment:WarmupDays,  3
! <Tabular Report>,Style,Unit Conversion
Tabular Report,HTML,None
! <Warmup Convergence Information>,Zone Name,Environment Type/Name,Average Warmup Temperature Difference {deltaC},Std Dev Warmup Temperature Difference {deltaC},Max Temperature Pass/Fail Convergence,Min Temperature Pass/Fail Convergence,Average Warmup Load Difference {W},Std Dev Warmup Load Difference {W},Heating Load Pass/Fail Convergence,Cooling Load Pass/Fail Convergence
 Warmup Convergence Information,ZONE SMALLOFFICE WHOLEBUILDING - SM OFFICE A  - STORY GROUND,SizingPeriod: CLIMATE ZONE 3 ANN CLG .4% CONDNS DB=>MWB HVAC Sizing Pass 1,2.5367010900E-002,0.1262123515,Pass,Pass,0.1301813349,0.5953589542,Pass,Pass
 Warmup Convergence Information,ZONE SMALLOFFICE WHOLEBUILDING - SM OFFICE A END_A - STORY GROUND,SizingPeriod: CLIMATE ZONE 3 ANN CLG .4% CONDNS DB=>MWB HVAC Sizing Pass 1,2.7630756235E-002,0.1420729968,Pass,Pass,0.1955665541,1.0220696644,Pass,Pass
 Warmup Convergence Information,ZONE SMALLOFFICE WHOLEBUILDING - SM OFFICE A END_B - STORY GROUND,SizingPeriod: CLIMATE ZONE 3 ANN CLG .4% CONDNS DB=>MWB HVAC Sizing Pass 1,3.7842728948E-002,0.1787290687,Pass,Pass,0.2947676580,2.1394436558,Pass,Pass
 Warmup Convergence Information,ZONE SMALLOFFICE WHOLEBUILDING - SM OFFICE B  - STORY GROUND,SizingPeriod: CLIMATE ZONE 3 ANN CLG .4% CONDNS DB=>MWB HVAC Sizing Pass 1,2.9390395058E-002,0.1248695979,Pass,Pass,4.8166508339E-002,0.2610989895,Pass,Pass
 Warmup Convergence Information,ZONE SMALLOFFICE WHOLEBUILDING - SM OFFICE B END_A - STORY GROUND,SizingPeriod: CLIMATE ZONE 3 ANN CLG .4% CONDNS DB=>MWB HVAC Sizing Pass 1,2.9610894599E-002,0.1474641046,Pass,Pass,0.1907972742,1.0293617723,Pass,Pass
 Warmup Convergence Information,ZONE SMALLOFFICE WHOLEBUILDING - SM OFFICE B END_B - STORY GROUND,SizingPeriod: CLIMATE ZONE 3 ANN CLG .4% CONDNS DB=>MWB HVAC Sizing Pass 1,4.3188169350E-002,0.1829343777,Pass,Pass,9.8425013748E-002,0.5531404366,Pass,Pass
 Warmup Convergence Information,ZONE SMALLOFFICE WHOLEBUILDING - SM OFFICE C  - STORY GROUND,SizingPeriod: CLIMATE ZONE 3 ANN CLG .4% CONDNS DB=>MWB HVAC Sizing Pass 1,2.0150434630E-002,9.8654492033E-002,Pass,Pass,9.5137730230E-002,0.3873493962,Pass,Pass
 Warmup Convergence Information,ZONE SMALLOFFICE WHOLEBUILDING - SM OFFICE C END_A - STORY GROUND,SizingPeriod: CLIMATE ZONE 3 ANN CLG .4% CONDNS DB=>MWB HVAC Sizing Pass 1,2.3895351479E-002,0.1214752475,Pass,Pass,0.2406526227,1.4707401012,Pass,Pass
 Warmup Convergence Information,ZONE SMALLOFFICE WHOLEBUILDING - SM OFFICE C END_B - STORY GROUND,SizingPeriod: CLIMATE ZONE 3 ANN CLG .4% CONDNS DB=>MWB HVAC Sizing Pass 1,3.4093238198E-002,0.1569741903,Pass,Pass,0.3310848235,2.5987935858,Pass,Pass
Environment:Design Day Data,25.50,7.40,DefaultMultipliers,Wetbulb,19.80,{C},101301,290,4.9,0.00,No,No
Environment:Design Day Misc,233,1106.3,0.2000,0.1216,1.0,-3.33,12.4,ASHRAETau
Environment:WarmupDays,  3
 Warmup Convergence Information,ZONE SMALLOFFICE WHOLEBUILDING - SM OFFICE A  - STORY GROUND,SizingPeriod: CLIMATE ZONE 3 ANN CLG .4% CONDNS WB=>MDB HVAC Sizing Pass 1,1.2373210221E-002,6.5276099934E-002,Pass,Pass,6.7760079148E-002,0.1709237133,Pass,Pass
 Warmup Convergence Information,ZONE SMALLOFFICE WHOLEBUILDING - SM OFFICE A END_A - STORY GROUND,SizingPeriod: CLIMATE ZONE 3 ANN CLG .4% CONDNS WB=>MDB HVAC Sizing Pass 1,1.2624325760E-002,6.7043978824E-002,Pass,Pass,0.1292735425,0.4262103585,Pass,Pass
 Warmup Convergence Information,ZONE SMALLOFFICE WHOLEBUILDING - SM OFFICE A END_B - STORY GROUND,SizingPeriod: CLIMATE ZONE 3 ANN CLG .4% CONDNS WB=>MDB HVAC Sizing Pass 1,2.2457187438E-002,0.1123374044,Pass,Pass,7.6102699274E-002,0.2094817390,Pass,Pass
 Warmup Convergence Information,ZONE SMALLOFFICE WHOLEBUILDING - SM OFFICE B  - STORY GROUND,SizingPeriod: CLIMATE ZONE 3 ANN CLG .4% CONDNS WB=>MDB HVAC Sizing Pass 1,1.7543978292E-002,7.8419178300E-002,Pass,Pass,3.3012742471E-002,0.1107562811,Pass,Pass
 Warmup Convergence Information,ZONE SMALLOFFICE WHOLEBUILDING - SM OFFICE B END_A - STORY GROUND,SizingPeriod: CLIMATE ZONE 3 ANN CLG .4% CONDNS WB=>MDB HVAC Sizing Pass 1,1.6076486019E-002,8.5844125512E-002,Pass,Pass,9.2399382914E-002,0.2760931643,Pass,Pass
 Warmup Convergence Information,ZONE SMALLOFFICE WHOLEBUILDING - SM OFFICE B END_B - STORY GROUND,SizingPeriod: CLIMATE ZONE 3 ANN CLG .4% CONDNS WB=>MDB HVAC Sizing Pass 1,2.9203619690E-002,0.1312912236,Pass,Pass,5.0106729267E-002,0.1323296190,Pass,Pass
 Warmup Convergence Information,ZONE SMALLOFFICE WHOLEBUILDING - SM OFFICE C  - STORY GROUND,SizingPeriod: CLIMATE ZONE 3 ANN CLG .4% CONDNS WB=>MDB HVAC Sizing Pass 1,6.6915076005E-003,3.5666265455E-002,Pass,Pass,4.8333342669E-002,0.1107708104,Pass,Pass
 Warmup Convergence Information,ZONE SMALLOFFICE WHOLEBUILDING - SM OFFICE C END_A - STORY GROUND,SizingPeriod: CLIMATE ZONE 3 ANN CLG .4% CONDNS WB=>MDB HVAC Sizing Pass 1,8.9390526662E-003,4.6970624630E-002,Pass,Pass,9.5634192174E-002,0.2306319655,Pass,Pass
 Warmup Convergence Information,ZONE SMALLOFFICE WHOLEBUILDING - SM OFFICE C END_B - STORY GROUND,SizingPeriod: CLIMATE ZONE 3 ANN CLG .4% CONDNS WB=>MDB HVAC Sizing Pass 1,1.8741789450E-002,9.8296721806E-002,Pass,Pass,6.2396568316E-002,0.1208039266,Pass,Pass
Environment:Design Day Data,2.90,0.00,DefaultMultipliers,Wetbulb,2.90,{C},101301,50,2.2,0.00,No,No
Environment:Design Day Misc, 21,1229.0,0.1415,5.7310E-002,1.0,-11.15,-20.1,ASHRAEClearSky
Environment:WarmupDays,  3
 Warmup Convergence Information,ZONE SMALLOFFICE WHOLEBUILDING - SM OFFICE A  - STORY GROUND,SizingPeriod: CLIMATE ZONE 3 ANN HTG 99.6% CONDNS DB HVAC Sizing Pass 1,0.1145481189,0.5938879487,Pass,Pass,6.1290165157E-002,0.2804690737,Pass,Pass
 Warmup Convergence Information,ZONE SMALLOFFICE WHOLEBUILDING - SM OFFICE A END_A - STORY GROUND,SizingPeriod: CLIMATE ZONE 3 ANN HTG 99.6% CONDNS DB HVAC Sizing Pass 1,0.1145326456,0.6185148039,Pass,Pass,8.9628236704E-002,0.6715744735,Pass,Pass
 Warmup Convergence Information,ZONE SMALLOFFICE WHOLEBUILDING - SM OFFICE A END_B - STORY GROUND,SizingPeriod: CLIMATE ZONE 3 ANN HTG 99.6% CONDNS DB HVAC Sizing Pass 1,0.1146377184,0.6142044552,Pass,Pass,8.3882271677E-002,0.5840531627,Pass,Pass
 Warmup Convergence Information,ZONE SMALLOFFICE WHOLEBUILDING - SM OFFICE B  - STORY GROUND,SizingPeriod: CLIMATE ZONE 3 ANN HTG 99.6% CONDNS DB HVAC Sizing Pass 1,0.1105549384,0.5233535300,Pass,Pass,2.4975449509E-002,9.2084380302E-002,Pass,Pass
 Warmup Convergence Information,ZONE SMALLOFFICE WHOLEBUILDING - SM OFFICE B END_A - STORY GROUND,SizingPeriod: CLIMATE ZONE 3 ANN HTG 99.6% CONDNS DB HVAC Sizing Pass 1,0.1136829687,0.5957692735,Pass,Pass,5.5509800083E-002,0.2855694494,Pass,Pass
 Warmup Convergence Information,ZONE SMALLOFFICE WHOLEBUILDING - SM OFFICE B END_B - STORY GROUND,SizingPeriod: CLIMATE ZONE 3 ANN HTG 99.6% CONDNS DB HVAC Sizing Pass 1,0.1145187494,0.5949326319,Pass,Pass,0.1137861637,0.6009936584,Pass,Pass
 Warmup Convergence Information,ZONE SMALLOFFICE WHOLEBUILDING - SM OFFICE C  - STORY GROUND,SizingPeriod: CLIMATE ZONE 3 ANN HTG 99.6% CONDNS DB HVAC Sizing Pass 1,0.1147031452,0.5787232573,Pass,Pass,6.1444229969E-002,0.2855058516,Pass,Pass
 Warmup Convergence Information,ZONE SMALLOFFICE WHOLEBUILDING - SM OFFICE C END_A - STORY GROUND,SizingPeriod: CLIMATE ZONE 3 ANN HTG 99.6% CONDNS DB HVAC Sizing Pass 1,0.1146327207,0.6143052141,Pass,Pass,8.4120234836E-002,0.5884854005,Pass,Pass
 Warmup Convergence Information,ZONE SMALLOFFICE WHOLEBUILDING - SM OFFICE C END_B - STORY GROUND,SizingPeriod: CLIMATE ZONE 3 ANN HTG 99.6% CONDNS DB HVAC Sizing Pass 1,0.1147191036,0.6144366134,Pass,Pass,0.1024992140,0.5751454255,Pass,Pass
Environment:Design Day Data,27.70,7.40,DefaultMultipliers,Wetbulb,18.30,{C},101301,290,4.9,0.00,No,No
Environment:Design Day Misc,233,1106.3,0.2000,0.1216,1.0,-3.33,12.4,ASHRAETau
 Component Sizing Information, PlantLoop, HOT WATER LOOP, Maximum Loop Flow Rate [m3/s], 0.00000
 Component Sizing Information, PlantLoop, HOT WATER LOOP, Plant Loop Volume [m3], 0.00000
 Component Sizing Information, PlantLoop, OFFICE SHARED SERVICE WATER LOOP, Maximum Loop Flow Rate [m3/s], 1.07585E-004
 Component Sizing Information, PlantLoop, OFFICE SHARED SERVICE WATER LOOP, Plant Loop Volume [m3], 1.29102E-002
 Component Sizing Information, Boiler:HotWater, BOILER, Design Size Nominal Capacity [W], 0.00000
 Component Sizing Information, Boiler:HotWater, BOILER, Design Size Design Water Flow Rate [m3/s], 0.00000
 Component Sizing Information, Pump:VariableSpeed, HOT WATER LOOP PUMP, Design Flow Rate [m3/s], 0.00000
 Component Sizing Information, Pump:VariableSpeed, HOT WATER LOOP PUMP, Design Power Consumption [W], 0.00000
 Component Sizing Information, WaterHeater:Mixed, 107GAL NATURALGAS WATER HEATER - 107KBTU/HR 0.808 THERM EFF, Use Side Design Flow Rate [m3/s], 1.07585E-004
 Component Sizing Information, Pump:ConstantSpeed, OFFICE SHARED SERVICE WATER LOOP CIRCULATOR PUMP, Design Flow Rate [m3/s], 1.07585E-004
 Component Sizing Information, Pump:ConstantSpeed, OFFICE SHARED SERVICE WATER LOOP CIRCULATOR PUMP, Design Power Consumption [W], 4.99735
Environment:Design Day Data,25.50,7.40,DefaultMultipliers,Wetbulb,19.80,{C},101301,290,4.9,0.00,No,No
Environment:Design Day Misc,233,1106.3,0.2000,0.1216,1.0,-3.33,12.4,ASHRAETau
Environment:Design Day Data,2.90,0.00,DefaultMultipliers,Wetbulb,2.90,{C},101301,50,2.2,0.00,No,No
Environment:Design Day Misc, 21,1229.0,0.1415,5.7310E-002,1.0,-11.15,-20.1,ASHRAEClearSky
Environment,RUN PERIOD 1,WeatherFileRunPeriod,01/01/2019,12/31/2019,Tuesday,365,Use RunPeriod Specified Day,No,No,No,Yes,Yes,Clark and Allen
Environment:Design Day Data,27.70,7.40,DefaultMultipliers,Wetbulb,18.30,{C},101301,290,4.9,0.00,No,No
Environment:Design Day Misc,233,1106.3,0.2000,0.1216,1.0,-3.33,12.4,ASHRAETau
Environment:Design Day Data,25.50,7.40,DefaultMultipliers,Wetbulb,19.80,{C},101301,290,4.9,0.00,No,No
Environment:Design Day Misc,233,1106.3,0.2000,0.1216,1.0,-3.33,12.4,ASHRAETau
Environment:Design Day Data,2.90,0.00,DefaultMultipliers,Wetbulb,2.90,{C},101301,50,2.2,0.00,No,No
Environment:Design Day Misc, 21,1229.0,0.1415,5.7310E-002,1.0,-11.15,-20.1,ASHRAEClearSky
Environment,RUN PERIOD 1,WeatherFileRunPeriod,01/01/2019,12/31/2019,Tuesday,365,Use RunPeriod Specified Day,No,No,No,Yes,Yes,Clark and Allen
Environment:Daylight Saving,No,RunPeriod Object
Environment:WarmupDays,  3
 Warmup Convergence Information,ZONE SMALLOFFICE WHOLEBUILDING - SM OFFICE A  - STORY GROUND,RunPeriod: RUN PERIOD 1,0.1599132895,0.2556211572,Pass,Pass,0.1430584434,0.5832260524,Pass,Pass
 Warmup Convergence Information,ZONE SMALLOFFICE WHOLEBUILDING - SM OFFICE A END_A - STORY GROUND,RunPeriod: RUN PERIOD 1,0.1603442126,0.3688660117,Pass,Pass,9.1461759790E-002,0.1952820540,Pass,Pass
 Warmup Convergence Information,ZONE SMALLOFFICE WHOLEBUILDING - SM OFFICE A END_B - STORY GROUND,RunPeriod: RUN PERIOD 1,0.1496133898,0.3551987828,Pass,Pass,0.1016249608,0.2193515288,Pass,Pass
 Warmup Convergence Information,ZONE SMALLOFFICE WHOLEBUILDING - SM OFFICE B  - STORY GROUND,RunPeriod: RUN PERIOD 1,8.4220808380E-002,0.1584721044,Pass,Pass,0.2515101950,1.4004277133,Pass,Pass
 Warmup Convergence Information,ZONE SMALLOFFICE WHOLEBUILDING - SM OFFICE B END_A - STORY GROUND,RunPeriod: RUN PERIOD 1,0.1155775088,0.3007382315,Pass,Pass,0.1594866317,0.4764219943,Pass,Pass
 Warmup Convergence Information,ZONE SMALLOFFICE WHOLEBUILDING - SM OFFICE B END_B - STORY GROUND,RunPeriod: RUN PERIOD 1,0.1108197989,0.2835779377,Pass,Pass,8.4529925235E-002,0.2390421614,Pass,Pass
 Warmup Convergence Information,ZONE SMALLOFFICE WHOLEBUILDING - SM OFFICE C  - STORY GROUND,RunPeriod: RUN PERIOD 1,0.1177868835,0.3156898382,Pass,Pass,7.0756766838E-002,0.2359241983,Pass,Pass
 Warmup Convergence Information,ZONE SMALLOFFICE WHOLEBUILDING - SM OFFICE C END_A - STORY GROUND,RunPeriod: RUN PERIOD 1,0.1250198269,0.4101760570,Pass,Pass,0.1194255056,0.2897291985,Pass,Pass
 Warmup Convergence Information,ZONE SMALLOFFICE WHOLEBUILDING - SM OFFICE C END_B - STORY GROUND,RunPeriod: RUN PERIOD 1,0.1255747224,0.4206279687,Pass,Pass,0.1111148284,0.2965222774,Pass,Pass
! <Program Control Information:Threads/Parallel Sims>, Threading Supported,Maximum Number of Threads, Env Set Threads (OMP_NUM_THREADS), EP Env Set Threads (EP_OMP_NUM_THREADS), IDF Set Threads, Number of Threads Used (Interior Radiant Exchange), Number Nominal Surfaces, Number Parallel Sims
Program Control:Threads/Parallel Sims, No,1, N/A, N/A, N/A, N/A, N/A, N/A
End of Data
