Program Version,EnergyPlus, Version 9.4.0-998c4b761e, YMD=2021.06.25 08:52
! This file shows details about the branches, nodes, and other
! elements of the flow connections.
! This file is intended for use in "debugging" potential problems
! that may also be detected by the program, but may be more easily
! identified by "eye".
! This file is also intended to support software which draws a
! schematic diagram of the HVAC system.
! ===============================================================
! #Nodes,<Number of Unique Nodes>
 #Nodes,109
! <Node>,<NodeNumber>,<Node Name>,<Node Fluid Type>,<# Times Node Referenced After Definition>
 Node,1,ZONE MEDIUMOFFICE WHOLEBUILDING - MD OFFICE A  - STORY GROUND VAV TERMINAL OUTLET AIR NODE,Air,4
 Node,2,ZONE MEDIUMOFFICE WHOLEBUILDING - MD OFFICE A  - STORY GROUND RETURN AIR NODE,Air,2
 Node,3,ZONE MEDIUMOFFICE WHOLEBUILDING - MD OFFICE A END_A - STORY GROUND VAV TERMINAL OUTLET AIR NODE,Air,4
 Node,4,ZONE MEDIUMOFFICE WHOLEBUILDING - MD OFFICE A END_A - STORY GROUND RETURN AIR NODE,Air,2
 Node,5,ZONE MEDIUMOFFICE WHOLEBUILDING - MD OFFICE A END_B - STORY GROUND VAV TERMINAL OUTLET AIR NODE,Air,4
 Node,6,ZONE MEDIUMOFFICE WHOLEBUILDING - MD OFFICE A END_B - STORY GROUND RETURN AIR NODE,Air,2
 Node,7,ZONE MEDIUMOFFICE WHOLEBUILDING - MD OFFICE B  - STORY GROUND VAV TERMINAL OUTLET AIR NODE,Air,4
 Node,8,ZONE MEDIUMOFFICE WHOLEBUILDING - MD OFFICE B  - STORY GROUND RETURN AIR NODE,Air,2
 Node,9,ZONE MEDIUMOFFICE WHOLEBUILDING - MD OFFICE B END_A - STORY GROUND VAV TERMINAL OUTLET AIR NODE,Air,4
 Node,10,ZONE MEDIUMOFFICE WHOLEBUILDING - MD OFFICE B END_A - STORY GROUND RETURN AIR NODE,Air,2
 Node,11,ZONE MEDIUMOFFICE WHOLEBUILDING - MD OFFICE B END_B - STORY GROUND VAV TERMINAL OUTLET AIR NODE,Air,4
 Node,12,ZONE MEDIUMOFFICE WHOLEBUILDING - MD OFFICE B END_B - STORY GROUND RETURN AIR NODE,Air,2
 Node,13,ZONE MEDIUMOFFICE WHOLEBUILDING - MD OFFICE C  - STORY GROUND VAV TERMINAL OUTLET AIR NODE,Air,4
 Node,14,ZONE MEDIUMOFFICE WHOLEBUILDING - MD OFFICE C  - STORY GROUND RETURN AIR NODE,Air,2
 Node,15,ZONE MEDIUMOFFICE WHOLEBUILDING - MD OFFICE C END_A - STORY GROUND VAV TERMINAL OUTLET AIR NODE,Air,4
 Node,16,ZONE MEDIUMOFFICE WHOLEBUILDING - MD OFFICE C END_A - STORY GROUND RETURN AIR NODE,Air,2
 Node,17,ZONE MEDIUMOFFICE WHOLEBUILDING - MD OFFICE C END_B - STORY GROUND VAV TERMINAL OUTLET AIR NODE,Air,4
 Node,18,ZONE MEDIUMOFFICE WHOLEBUILDING - MD OFFICE C END_B - STORY GROUND RETURN AIR NODE,Air,2
 Node,19,9 ZONE PVAV SUPPLY OUTLET NODE,Air,10
 Node,20,9 ZONE PVAV DEMAND INLET NODE,Air,3
 Node,21,9 ZONE PVAV SUPPLY INLET NODE,Air,3
 Node,22,9 ZONE PVAV MIXED AIR NODE,Air,6
 Node,23,9 ZONE PVAV 2SPD DX CLG COIL OUTLET AIR NODE,Air,6
 Node,24,9 ZONE PVAV MAIN HTG COIL OUTLET AIR NODE,Air,8
 Node,25,HOT WATER LOOP SUPPLY INLET NODE,Water,2
 Node,26,HOT WATER LOOP PUMP OUTLET WATER NODE,Water,1
 Node,27,BOILER INLET WATER NODE,Water,1
 Node,28,BOILER OUTLET WATER NODE,Water,1
 Node,29,HOT WATER LOOP SUPPLY EQUIPMENT BYPASS INLET WATER NODE,Water,1
 Node,30,HOT WATER LOOP SUPPLY EQUIPMENT BYPASS OUTLET WATER NODE,Water,1
 Node,31,HOT WATER LOOP SUPPLY OUTLET INLET WATER NODE,Water,1
 Node,32,HOT WATER LOOP SUPPLY OUTLET NODE,Water,4
 Node,33,HOT WATER LOOP DEMAND INLET NODE,Water,2
 Node,34,HOT WATER LOOP DEMAND INLET OUTLET WATER NODE,Water,1
 Node,35,HOT WATER LOOP COIL BYPASS INLET WATER NODE,Water,1
 Node,36,HOT WATER LOOP COIL BYPASS OUTLET WATER NODE,Water,1
 Node,37,9 ZONE PVAV MAIN HTG COIL INLET WATER NODE,Water,2
 Node,38,9 ZONE PVAV MAIN HTG COIL OUTLET WATER NODE,Water,1
 Node,39,ZONE MEDIUMOFFICE WHOLEBUILDING - MD OFFICE C  - STORY GROUND REHEAT COIL INLET WATER NODE,Water,1
 Node,40,ZONE MEDIUMOFFICE WHOLEBUILDING - MD OFFICE C  - STORY GROUND REHEAT COIL OUTLET WATER NODE,Water,1
 Node,41,ZONE MEDIUMOFFICE WHOLEBUILDING - MD OFFICE B END_B - STORY GROUND REHEAT COIL INLET WATER NODE,Water,1
 Node,42,ZONE MEDIUMOFFICE WHOLEBUILDING - MD OFFICE B END_B - STORY GROUND REHEAT COIL OUTLET WATER NODE,Water,1
 Node,43,ZONE MEDIUMOFFICE WHOLEBUILDING - MD OFFICE A  - STORY GROUND REHEAT COIL INLET WATER NODE,Water,1
 Node,44,ZONE MEDIUMOFFICE WHOLEBUILDING - MD OFFICE A  - STORY GROUND REHEAT COIL OUTLET WATER NODE,Water,1
 Node,45,ZONE MEDIUMOFFICE WHOLEBUILDING - MD OFFICE C END_A - STORY GROUND REHEAT COIL INLET WATER NODE,Water,1
 Node,46,ZONE MEDIUMOFFICE WHOLEBUILDING - MD OFFICE C END_A - STORY GROUND REHEAT COIL OUTLET WATER NODE,Water,1
 Node,47,ZONE MEDIUMOFFICE WHOLEBUILDING - MD OFFICE A END_B - STORY GROUND REHEAT COIL INLET WATER NODE,Water,1
 Node,48,ZONE MEDIUMOFFICE WHOLEBUILDING - MD OFFICE A END_B - STORY GROUND REHEAT COIL OUTLET WATER NODE,Water,1
 Node,49,ZONE MEDIUMOFFICE WHOLEBUILDING - MD OFFICE B END_A - STORY GROUND REHEAT COIL INLET WATER NODE,Water,1
 Node,50,ZONE MEDIUMOFFICE WHOLEBUILDING - MD OFFICE B END_A - STORY GROUND REHEAT COIL OUTLET WATER NODE,Water,1
 Node,51,ZONE MEDIUMOFFICE WHOLEBUILDING - MD OFFICE C END_B - STORY GROUND REHEAT COIL INLET WATER NODE,Water,1
 Node,52,ZONE MEDIUMOFFICE WHOLEBUILDING - MD OFFICE C END_B - STORY GROUND REHEAT COIL OUTLET WATER NODE,Water,1
 Node,53,ZONE MEDIUMOFFICE WHOLEBUILDING - MD OFFICE B  - STORY GROUND REHEAT COIL INLET WATER NODE,Water,1
 Node,54,ZONE MEDIUMOFFICE WHOLEBUILDING - MD OFFICE B  - STORY GROUND REHEAT COIL OUTLET WATER NODE,Water,1
 Node,55,ZONE MEDIUMOFFICE WHOLEBUILDING - MD OFFICE A END_A - STORY GROUND REHEAT COIL INLET WATER NODE,Water,1
 Node,56,ZONE MEDIUMOFFICE WHOLEBUILDING - MD OFFICE A END_A - STORY GROUND REHEAT COIL OUTLET WATER NODE,Water,1
 Node,57,HOT WATER LOOP DEMAND BYPASS PIPE INLET NODE,Water,1
 Node,58,HOT WATER LOOP DEMAND BYPASS PIPE OUTLET NODE,Water,1
 Node,59,HOT WATER LOOP DEMAND OUTLET INLET WATER NODE,Water,1
 Node,60,HOT WATER LOOP DEMAND OUTLET NODE,Water,2
 Node,61,OFFICE SHARED SERVICE WATER LOOP SUPPLY INLET NODE,Water,2
 Node,62,OFFICE SHARED SERVICE WATER LOOP CIRCULATOR PUMP OUTLET WATER NODE,Water,1
 Node,63,221GAL NATURALGAS WATER HEATER - 221KBTU/HR SUPPLY INLET WATER NODE,Water,1
 Node,64,221GAL NATURALGAS WATER HEATER - 221KBTU/HR SUPPLY OUTLET WATER NODE,Water,1
 Node,65,PIPE ADIABATIC 1 INLET WATER NODE,Water,1
 Node,66,PIPE ADIABATIC 1 OUTLET WATER NODE,Water,1
 Node,67,PIPE ADIABATIC 3 INLET WATER NODE,Water,1
 Node,68,OFFICE SHARED SERVICE WATER LOOP SUPPLY OUTLET NODE,Water,4
 Node,69,OFFICE SHARED SERVICE WATER LOOP DEMAND INLET NODE,Water,2
 Node,70,OFFICE SHARED SERVICE WATER LOOP PIPE 1245.2116285997306FT OUTLET WATER NODE,Water,1
 Node,71,PIPE ADIABATIC 2 INLET WATER NODE,Water,1
 Node,72,PIPE ADIABATIC 2 OUTLET WATER NODE,Water,1
 Node,73,MEDIUMOFFICE WHOLEBUILDING - MD OFFICE - 90.1-2007 WUC 6.14GPM AT 140F INLET WATER NODE,Water,1
 Node,74,MEDIUMOFFICE WHOLEBUILDING - MD OFFICE - 90.1-2007 WUC 6.14GPM AT 140F OUTLET WATER NODE,Water,1
 Node,75,OFFICE SHARED SERVICE WATER LOOP DEMAND BYPASS PIPE INLET NODE,Water,1
 Node,76,OFFICE SHARED SERVICE WATER LOOP DEMAND BYPASS PIPE OUTLET NODE,Water,1
 Node,77,PIPE ADIABATIC 4 INLET WATER NODE,Water,1
 Node,78,OFFICE SHARED SERVICE WATER LOOP DEMAND OUTLET NODE,Water,2
 Node,79,ZONE MEDIUMOFFICE WHOLEBUILDING - MD OFFICE A  - STORY GROUND ZONE AIR NODE,Air,0
 Node,80,ZONE MEDIUMOFFICE WHOLEBUILDING - MD OFFICE A END_A - STORY GROUND ZONE AIR NODE,Air,0
 Node,81,ZONE MEDIUMOFFICE WHOLEBUILDING - MD OFFICE A END_B - STORY GROUND ZONE AIR NODE,Air,0
 Node,82,ZONE MEDIUMOFFICE WHOLEBUILDING - MD OFFICE B  - STORY GROUND ZONE AIR NODE,Air,0
 Node,83,ZONE MEDIUMOFFICE WHOLEBUILDING - MD OFFICE B END_A - STORY GROUND ZONE AIR NODE,Air,0
 Node,84,ZONE MEDIUMOFFICE WHOLEBUILDING - MD OFFICE B END_B - STORY GROUND ZONE AIR NODE,Air,0
 Node,85,ZONE MEDIUMOFFICE WHOLEBUILDING - MD OFFICE C  - STORY GROUND ZONE AIR NODE,Air,0
 Node,86,ZONE MEDIUMOFFICE WHOLEBUILDING - MD OFFICE C END_A - STORY GROUND ZONE AIR NODE,Air,0
 Node,87,ZONE MEDIUMOFFICE WHOLEBUILDING - MD OFFICE C END_B - STORY GROUND ZONE AIR NODE,Air,0
 Node,88,9 ZONE PVAV DEMAND OUTLET NODE,Air,2
 Node,89,9 ZONE PVAV OUTDOOR AIR NODE,Air,2
 Node,90,MODEL OUTDOOR AIR NODE,Air,0
 Node,91,ZONE MEDIUMOFFICE WHOLEBUILDING - MD OFFICE C  - STORY GROUND VAV TERMINAL INLET AIR NODE,Air,1
 Node,92,ZONE MEDIUMOFFICE WHOLEBUILDING - MD OFFICE B END_B - STORY GROUND VAV TERMINAL INLET AIR NODE,Air,1
 Node,93,ZONE MEDIUMOFFICE WHOLEBUILDING - MD OFFICE A  - STORY GROUND VAV TERMINAL INLET AIR NODE,Air,1
 Node,94,ZONE MEDIUMOFFICE WHOLEBUILDING - MD OFFICE C END_A - STORY GROUND VAV TERMINAL INLET AIR NODE,Air,1
 Node,95,ZONE MEDIUMOFFICE WHOLEBUILDING - MD OFFICE A END_B - STORY GROUND VAV TERMINAL INLET AIR NODE,Air,1
 Node,96,ZONE MEDIUMOFFICE WHOLEBUILDING - MD OFFICE B END_A - STORY GROUND VAV TERMINAL INLET AIR NODE,Air,1
 Node,97,ZONE MEDIUMOFFICE WHOLEBUILDING - MD OFFICE C END_B - STORY GROUND VAV TERMINAL INLET AIR NODE,Air,1
 Node,98,ZONE MEDIUMOFFICE WHOLEBUILDING - MD OFFICE B  - STORY GROUND VAV TERMINAL INLET AIR NODE,Air,1
 Node,99,ZONE MEDIUMOFFICE WHOLEBUILDING - MD OFFICE A END_A - STORY GROUND VAV TERMINAL INLET AIR NODE,Air,1
 Node,100,ZONE MEDIUMOFFICE WHOLEBUILDING - MD OFFICE A  - STORY GROUND VAV TERMINAL DAMPER OUTLET,Air,1
 Node,101,ZONE MEDIUMOFFICE WHOLEBUILDING - MD OFFICE A END_A - STORY GROUND VAV TERMINAL DAMPER OUTLET,Air,1
 Node,102,ZONE MEDIUMOFFICE WHOLEBUILDING - MD OFFICE A END_B - STORY GROUND VAV TERMINAL DAMPER OUTLET,Air,1
 Node,103,ZONE MEDIUMOFFICE WHOLEBUILDING - MD OFFICE B  - STORY GROUND VAV TERMINAL DAMPER OUTLET,Air,1
 Node,104,ZONE MEDIUMOFFICE WHOLEBUILDING - MD OFFICE B END_A - STORY GROUND VAV TERMINAL DAMPER OUTLET,Air,1
 Node,105,ZONE MEDIUMOFFICE WHOLEBUILDING - MD OFFICE B END_B - STORY GROUND VAV TERMINAL DAMPER OUTLET,Air,1
 Node,106,ZONE MEDIUMOFFICE WHOLEBUILDING - MD OFFICE C  - STORY GROUND VAV TERMINAL DAMPER OUTLET,Air,1
 Node,107,ZONE MEDIUMOFFICE WHOLEBUILDING - MD OFFICE C END_A - STORY GROUND VAV TERMINAL DAMPER OUTLET,Air,1
 Node,108,ZONE MEDIUMOFFICE WHOLEBUILDING - MD OFFICE C END_B - STORY GROUND VAV TERMINAL DAMPER OUTLET,Air,1
 Node,109,9 ZONE PVAV RELIEF AIR NODE,Air,1
! ===============================================================
! Suspicious nodes have 0 references.  It is normal for some nodes, however.
! Listing nodes with 0 references (culled from previous list):
! <Suspicious Node>,<NodeNumber>,<Node Name>,<Node Fluid Type>,<# Times Node Referenced After Definition>
 Suspicious Node,79,ZONE MEDIUMOFFICE WHOLEBUILDING - MD OFFICE A  - STORY GROUND ZONE AIR NODE,Air,0
 Suspicious Node,80,ZONE MEDIUMOFFICE WHOLEBUILDING - MD OFFICE A END_A - STORY GROUND ZONE AIR NODE,Air,0
 Suspicious Node,81,ZONE MEDIUMOFFICE WHOLEBUILDING - MD OFFICE A END_B - STORY GROUND ZONE AIR NODE,Air,0
 Suspicious Node,82,ZONE MEDIUMOFFICE WHOLEBUILDING - MD OFFICE B  - STORY GROUND ZONE AIR NODE,Air,0
 Suspicious Node,83,ZONE MEDIUMOFFICE WHOLEBUILDING - MD OFFICE B END_A - STORY GROUND ZONE AIR NODE,Air,0
 Suspicious Node,84,ZONE MEDIUMOFFICE WHOLEBUILDING - MD OFFICE B END_B - STORY GROUND ZONE AIR NODE,Air,0
 Suspicious Node,85,ZONE MEDIUMOFFICE WHOLEBUILDING - MD OFFICE C  - STORY GROUND ZONE AIR NODE,Air,0
 Suspicious Node,86,ZONE MEDIUMOFFICE WHOLEBUILDING - MD OFFICE C END_A - STORY GROUND ZONE AIR NODE,Air,0
 Suspicious Node,87,ZONE MEDIUMOFFICE WHOLEBUILDING - MD OFFICE C END_B - STORY GROUND ZONE AIR NODE,Air,0
 Suspicious Node,90,MODEL OUTDOOR AIR NODE,Air,0
! ===============================================================
! <#Branch Lists>,<Number of Branch Lists>
 #Branch Lists,5
! <Branch List>,<Branch List Count>,<Branch List Name>,<Loop Name>,<Loop Type>,<Number of Branches>
! <Branch>,<Branch Count>,<Branch Name>,<Loop Name>,<Loop Type>,<Branch Inlet Node Name>,<Branch Outlet Node Name>
 Branch List,1,9 ZONE PVAV SUPPLY BRANCHES,9 ZONE PVAV,Air,1
   Branch,1,9 ZONE PVAV MAIN BRANCH,9 ZONE PVAV,Air,9 ZONE PVAV SUPPLY INLET NODE,9 ZONE PVAV SUPPLY OUTLET NODE
 Branch List,2,HOT WATER LOOP SUPPLY BRANCHES,HOT WATER LOOP,Plant Supply,4
   Branch,1,HOT WATER LOOP SUPPLY INLET BRANCH,HOT WATER LOOP,Plant Supply,HOT WATER LOOP SUPPLY INLET NODE,HOT WATER LOOP PUMP OUTLET WATER NODE
   Branch,2,HOT WATER LOOP SUPPLY BRANCH 1,HOT WATER LOOP,Plant Supply,BOILER INLET WATER NODE,BOILER OUTLET WATER NODE
   Branch,3,HOT WATER LOOP SUPPLY BRANCH 2,HOT WATER LOOP,Plant Supply,HOT WATER LOOP SUPPLY EQUIPMENT BYPASS INLET WATER NODE,HOT WATER LOOP SUPPLY EQUIPMENT BYPASS OUTLET WATER NODE
   Branch,4,HOT WATER LOOP SUPPLY OUTLET BRANCH,HOT WATER LOOP,Plant Supply,HOT WATER LOOP SUPPLY OUTLET INLET WATER NODE,HOT WATER LOOP SUPPLY OUTLET NODE
 Branch List,3,HOT WATER LOOP DEMAND BRANCHES,HOT WATER LOOP,Plant Demand,14
   Branch,1,HOT WATER LOOP DEMAND INLET BRANCH,HOT WATER LOOP,Plant Demand,HOT WATER LOOP DEMAND INLET NODE,HOT WATER LOOP DEMAND INLET OUTLET WATER NODE
   Branch,2,HOT WATER LOOP DEMAND BRANCH 1,HOT WATER LOOP,Plant Demand,HOT WATER LOOP COIL BYPASS INLET WATER NODE,HOT WATER LOOP COIL BYPASS OUTLET WATER NODE
   Branch,3,HOT WATER LOOP DEMAND BRANCH 2,HOT WATER LOOP,Plant Demand,9 ZONE PVAV MAIN HTG COIL INLET WATER NODE,9 ZONE PVAV MAIN HTG COIL OUTLET WATER NODE
   Branch,4,HOT WATER LOOP DEMAND BRANCH 3,HOT WATER LOOP,Plant Demand,ZONE MEDIUMOFFICE WHOLEBUILDING - MD OFFICE C  - STORY GROUND REHEAT COIL INLET WATER NODE,ZONE MEDIUMOFFICE WHOLEBUILDING - MD OFFICE C  - STORY GROUND REHEAT COIL OUTLET WATER NODE
   Branch,5,HOT WATER LOOP DEMAND BRANCH 4,HOT WATER LOOP,Plant Demand,ZONE MEDIUMOFFICE WHOLEBUILDING - MD OFFICE B END_B - STORY GROUND REHEAT COIL INLET WATER NODE,ZONE MEDIUMOFFICE WHOLEBUILDING - MD OFFICE B END_B - STORY GROUND REHEAT COIL OUTLET WATER NODE
   Branch,6,HOT WATER LOOP DEMAND BRANCH 5,HOT WATER LOOP,Plant Demand,ZONE MEDIUMOFFICE WHOLEBUILDING - MD OFFICE A  - STORY GROUND REHEAT COIL INLET WATER NODE,ZONE MEDIUMOFFICE WHOLEBUILDING - MD OFFICE A  - STORY GROUND REHEAT COIL OUTLET WATER NODE
   Branch,7,HOT WATER LOOP DEMAND BRANCH 6,HOT WATER LOOP,Plant Demand,ZONE MEDIUMOFFICE WHOLEBUILDING - MD OFFICE C END_A - STORY GROUND REHEAT COIL INLET WATER NODE,ZONE MEDIUMOFFICE WHOLEBUILDING - MD OFFICE C END_A - STORY GROUND REHEAT COIL OUTLET WATER NODE
   Branch,8,HOT WATER LOOP DEMAND BRANCH 7,HOT WATER LOOP,Plant Demand,ZONE MEDIUMOFFICE WHOLEBUILDING - MD OFFICE A END_B - STORY GROUND REHEAT COIL INLET WATER NODE,ZONE MEDIUMOFFICE WHOLEBUILDING - MD OFFICE A END_B - STORY GROUND REHEAT COIL OUTLET WATER NODE
   Branch,9,HOT WATER LOOP DEMAND BRANCH 8,HOT WATER LOOP,Plant Demand,ZONE MEDIUMOFFICE WHOLEBUILDING - MD OFFICE B END_A - STORY GROUND REHEAT COIL INLET WATER NODE,ZONE MEDIUMOFFICE WHOLEBUILDING - MD OFFICE B END_A - STORY GROUND REHEAT COIL OUTLET WATER NODE
   Branch,10,HOT WATER LOOP DEMAND BRANCH 9,HOT WATER LOOP,Plant Demand,ZONE MEDIUMOFFICE WHOLEBUILDING - MD OFFICE C END_B - STORY GROUND REHEAT COIL INLET WATER NODE,ZONE MEDIUMOFFICE WHOLEBUILDING - MD OFFICE C END_B - STORY GROUND REHEAT COIL OUTLET WATER NODE
   Branch,11,HOT WATER LOOP DEMAND BRANCH 10,HOT WATER LOOP,Plant Demand,ZONE MEDIUMOFFICE WHOLEBUILDING - MD OFFICE B  - STORY GROUND REHEAT COIL INLET WATER NODE,ZONE MEDIUMOFFICE WHOLEBUILDING - MD OFFICE B  - STORY GROUND REHEAT COIL OUTLET WATER NODE
   Branch,12,HOT WATER LOOP DEMAND BRANCH 11,HOT WATER LOOP,Plant Demand,ZONE MEDIUMOFFICE WHOLEBUILDING - MD OFFICE A END_A - STORY GROUND REHEAT COIL INLET WATER NODE,ZONE MEDIUMOFFICE WHOLEBUILDING - MD OFFICE A END_A - STORY GROUND REHEAT COIL OUTLET WATER NODE
   Branch,13,HOT WATER LOOP DEMAND BYPASS BRANCH,HOT WATER LOOP,Plant Demand,HOT WATER LOOP DEMAND BYPASS PIPE INLET NODE,HOT WATER LOOP DEMAND BYPASS PIPE OUTLET NODE
   Branch,14,HOT WATER LOOP DEMAND OUTLET BRANCH,HOT WATER LOOP,Plant Demand,HOT WATER LOOP DEMAND OUTLET INLET WATER NODE,HOT WATER LOOP DEMAND OUTLET NODE
 Branch List,4,OFFICE SHARED SERVICE WATER LOOP SUPPLY BRANCHES,OFFICE SHARED SERVICE WATER LOOP,Plant Supply,4
   Branch,1,OFFICE SHARED SERVICE WATER LOOP SUPPLY INLET BRANCH,OFFICE SHARED SERVICE WATER LOOP,Plant Supply,OFFICE SHARED SERVICE WATER LOOP SUPPLY INLET NODE,OFFICE SHARED SERVICE WATER LOOP CIRCULATOR PUMP OUTLET WATER NODE
   Branch,2,OFFICE SHARED SERVICE WATER LOOP SUPPLY BRANCH 1,OFFICE SHARED SERVICE WATER LOOP,Plant Supply,221GAL NATURALGAS WATER HEATER - 221KBTU/HR SUPPLY INLET WATER NODE,221GAL NATURALGAS WATER HEATER - 221KBTU/HR SUPPLY OUTLET WATER NODE
   Branch,3,OFFICE SHARED SERVICE WATER LOOP SUPPLY BRANCH 2,OFFICE SHARED SERVICE WATER LOOP,Plant Supply,PIPE ADIABATIC 1 INLET WATER NODE,PIPE ADIABATIC 1 OUTLET WATER NODE
   Branch,4,OFFICE SHARED SERVICE WATER LOOP SUPPLY OUTLET BRANCH,OFFICE SHARED SERVICE WATER LOOP,Plant Supply,PIPE ADIABATIC 3 INLET WATER NODE,OFFICE SHARED SERVICE WATER LOOP SUPPLY OUTLET NODE
 Branch List,5,OFFICE SHARED SERVICE WATER LOOP DEMAND BRANCHES,OFFICE SHARED SERVICE WATER LOOP,Plant Demand,5
   Branch,1,OFFICE SHARED SERVICE WATER LOOP DEMAND INLET BRANCH,OFFICE SHARED SERVICE WATER LOOP,Plant Demand,OFFICE SHARED SERVICE WATER LOOP DEMAND INLET NODE,OFFICE SHARED SERVICE WATER LOOP PIPE 1245.2116285997306FT OUTLET WATER NODE
   Branch,2,OFFICE SHARED SERVICE WATER LOOP DEMAND BRANCH 1,OFFICE SHARED SERVICE WATER LOOP,Plant Demand,PIPE ADIABATIC 2 INLET WATER NODE,PIPE ADIABATIC 2 OUTLET WATER NODE
   Branch,3,OFFICE SHARED SERVICE WATER LOOP DEMAND BRANCH 2,OFFICE SHARED SERVICE WATER LOOP,Plant Demand,MEDIUMOFFICE WHOLEBUILDING - MD OFFICE - 90.1-2007 WUC 6.14GPM AT 140F INLET WATER NODE,MEDIUMOFFICE WHOLEBUILDING - MD OFFICE - 90.1-2007 WUC 6.14GPM AT 140F OUTLET WATER NODE
   Branch,4,OFFICE SHARED SERVICE WATER LOOP DEMAND BYPASS BRANCH,OFFICE SHARED SERVICE WATER LOOP,Plant Demand,OFFICE SHARED SERVICE WATER LOOP DEMAND BYPASS PIPE INLET NODE,OFFICE SHARED SERVICE WATER LOOP DEMAND BYPASS PIPE OUTLET NODE
   Branch,5,OFFICE SHARED SERVICE WATER LOOP DEMAND OUTLET BRANCH,OFFICE SHARED SERVICE WATER LOOP,Plant Demand,PIPE ADIABATIC 4 INLET WATER NODE,OFFICE SHARED SERVICE WATER LOOP DEMAND OUTLET NODE
! ===============================================================
! <#Supply Air Paths>,<Number of Supply Air Paths>
 #Supply Air Paths,1
! <Supply Air Path>,<Supply Air Path Count>,<Supply Air Path Name>,<AirLoopHVAC Name>
! <#Components on Supply Air Path>,<Number of Components>
! <Supply Air Path Component>,<Component Count>,<Component Type>,<Component Name>,<AirLoopHVAC Name>
! <#Outlet Nodes on Supply Air Path Component>,<Number of Nodes>
! <Supply Air Path Component Nodes>,<Node Count>,<Component Type>,<Component Name>,<Inlet Node Name>,<Outlet Node Name>,<AirLoopHVAC Name>
 Supply Air Path,1,9 ZONE PVAV 9 ZONE PVAV DEMAND INLET NODE SUPPLY PATH,9 ZONE PVAV
   #Components on Supply Air Path,1
   Supply Air Path Component,1,AIRLOOPHVAC:ZONESPLITTER,AIR LOOP HVAC ZONE SPLITTER 1,9 ZONE PVAV
     #Outlet Nodes on Supply Air Path Component,9
     Supply Air Path Component Nodes,1,AIRLOOPHVAC:ZONESPLITTER,AIR LOOP HVAC ZONE SPLITTER 1,9 ZONE PVAV DEMAND INLET NODE,ZONE MEDIUMOFFICE WHOLEBUILDING - MD OFFICE C  - STORY GROUND VAV TERMINAL INLET AIR NODE,9 ZONE PVAV
     Supply Air Path Component Nodes,2,AIRLOOPHVAC:ZONESPLITTER,AIR LOOP HVAC ZONE SPLITTER 1,9 ZONE PVAV DEMAND INLET NODE,ZONE MEDIUMOFFICE WHOLEBUILDING - MD OFFICE B END_B - STORY GROUND VAV TERMINAL INLET AIR NODE,9 ZONE PVAV
     Supply Air Path Component Nodes,3,AIRLOOPHVAC:ZONESPLITTER,AIR LOOP HVAC ZONE SPLITTER 1,9 ZONE PVAV DEMAND INLET NODE,ZONE MEDIUMOFFICE WHOLEBUILDING - MD OFFICE A  - STORY GROUND VAV TERMINAL INLET AIR NODE,9 ZONE PVAV
     Supply Air Path Component Nodes,4,AIRLOOPHVAC:ZONESPLITTER,AIR LOOP HVAC ZONE SPLITTER 1,9 ZONE PVAV DEMAND INLET NODE,ZONE MEDIUMOFFICE WHOLEBUILDING - MD OFFICE C END_A - STORY GROUND VAV TERMINAL INLET AIR NODE,9 ZONE PVAV
     Supply Air Path Component Nodes,5,AIRLOOPHVAC:ZONESPLITTER,AIR LOOP HVAC ZONE SPLITTER 1,9 ZONE PVAV DEMAND INLET NODE,ZONE MEDIUMOFFICE WHOLEBUILDING - MD OFFICE A END_B - STORY GROUND VAV TERMINAL INLET AIR NODE,9 ZONE PVAV
     Supply Air Path Component Nodes,6,AIRLOOPHVAC:ZONESPLITTER,AIR LOOP HVAC ZONE SPLITTER 1,9 ZONE PVAV DEMAND INLET NODE,ZONE MEDIUMOFFICE WHOLEBUILDING - MD OFFICE B END_A - STORY GROUND VAV TERMINAL INLET AIR NODE,9 ZONE PVAV
     Supply Air Path Component Nodes,7,AIRLOOPHVAC:ZONESPLITTER,AIR LOOP HVAC ZONE SPLITTER 1,9 ZONE PVAV DEMAND INLET NODE,ZONE MEDIUMOFFICE WHOLEBUILDING - MD OFFICE C END_B - STORY GROUND VAV TERMINAL INLET AIR NODE,9 ZONE PVAV
     Supply Air Path Component Nodes,8,AIRLOOPHVAC:ZONESPLITTER,AIR LOOP HVAC ZONE SPLITTER 1,9 ZONE PVAV DEMAND INLET NODE,ZONE MEDIUMOFFICE WHOLEBUILDING - MD OFFICE B  - STORY GROUND VAV TERMINAL INLET AIR NODE,9 ZONE PVAV
     Supply Air Path Component Nodes,9,AIRLOOPHVAC:ZONESPLITTER,AIR LOOP HVAC ZONE SPLITTER 1,9 ZONE PVAV DEMAND INLET NODE,ZONE MEDIUMOFFICE WHOLEBUILDING - MD OFFICE A END_A - STORY GROUND VAV TERMINAL INLET AIR NODE,9 ZONE PVAV
! <#Nodes on Supply Air Path>,<Number of Nodes>
! <Supply Air Path Node>,<Node Type>,<Node Count>,<Node Name>,<AirLoopHVAC Name>
#Nodes on Supply Air Path,10
   Supply Air Path Node,Inlet Node,1,9 ZONE PVAV DEMAND INLET NODE,9 ZONE PVAV
   Supply Air Path Node,Outlet Node,2,ZONE MEDIUMOFFICE WHOLEBUILDING - MD OFFICE C  - STORY GROUND VAV TERMINAL INLET AIR NODE,9 ZONE PVAV
   Supply Air Path Node,Outlet Node,3,ZONE MEDIUMOFFICE WHOLEBUILDING - MD OFFICE B END_B - STORY GROUND VAV TERMINAL INLET AIR NODE,9 ZONE PVAV
   Supply Air Path Node,Outlet Node,4,ZONE MEDIUMOFFICE WHOLEBUILDING - MD OFFICE A  - STORY GROUND VAV TERMINAL INLET AIR NODE,9 ZONE PVAV
   Supply Air Path Node,Outlet Node,5,ZONE MEDIUMOFFICE WHOLEBUILDING - MD OFFICE C END_A - STORY GROUND VAV TERMINAL INLET AIR NODE,9 ZONE PVAV
   Supply Air Path Node,Outlet Node,6,ZONE MEDIUMOFFICE WHOLEBUILDING - MD OFFICE A END_B - STORY GROUND VAV TERMINAL INLET AIR NODE,9 ZONE PVAV
   Supply Air Path Node,Outlet Node,7,ZONE MEDIUMOFFICE WHOLEBUILDING - MD OFFICE B END_A - STORY GROUND VAV TERMINAL INLET AIR NODE,9 ZONE PVAV
   Supply Air Path Node,Outlet Node,8,ZONE MEDIUMOFFICE WHOLEBUILDING - MD OFFICE C END_B - STORY GROUND VAV TERMINAL INLET AIR NODE,9 ZONE PVAV
   Supply Air Path Node,Outlet Node,9,ZONE MEDIUMOFFICE WHOLEBUILDING - MD OFFICE B  - STORY GROUND VAV TERMINAL INLET AIR NODE,9 ZONE PVAV
   Supply Air Path Node,Outlet Node,10,ZONE MEDIUMOFFICE WHOLEBUILDING - MD OFFICE A END_A - STORY GROUND VAV TERMINAL INLET AIR NODE,9 ZONE PVAV
! ===============================================================
! <#Return Air Paths>,<Number of Return Air Paths>
 #Return Air Paths,1
! <Return Air Path>,<Return Air Path Count>,<Return Air Path Name>,<AirLoopHVAC Name>
! <#Components on Return Air Path>,<Number of Components>
! <Return Air Path Component>,<Component Count>,<Component Type>,<Component Name>,<AirLoopHVAC Name>
! <#Inlet Nodes on Return Air Path Component>,<Number of Nodes>
! <Return Air Path Component Nodes>,<Node Count>,<Component Type>,<Component Name>,<Inlet Node Name>,<Outlet Node Name>,<AirLoopHVAC Name>
 Return Air Path,1,9 ZONE PVAV RETURN PATH,9 ZONE PVAV
   #Components on Return Air Path,1
   Return Air Path Component,1,AIRLOOPHVAC:ZONEMIXER,AIR LOOP HVAC ZONE MIXER 1,9 ZONE PVAV
     #Inlet Nodes on Return Air Path Component,9
     Return Air Path Component Nodes,1,AIRLOOPHVAC:ZONEMIXER,AIR LOOP HVAC ZONE MIXER 1,ZONE MEDIUMOFFICE WHOLEBUILDING - MD OFFICE C  - STORY GROUND RETURN AIR NODE,9 ZONE PVAV DEMAND OUTLET NODE,9 ZONE PVAV
     Return Air Path Component Nodes,2,AIRLOOPHVAC:ZONEMIXER,AIR LOOP HVAC ZONE MIXER 1,ZONE MEDIUMOFFICE WHOLEBUILDING - MD OFFICE B END_B - STORY GROUND RETURN AIR NODE,9 ZONE PVAV DEMAND OUTLET NODE,9 ZONE PVAV
     Return Air Path Component Nodes,3,AIRLOOPHVAC:ZONEMIXER,AIR LOOP HVAC ZONE MIXER 1,ZONE MEDIUMOFFICE WHOLEBUILDING - MD OFFICE A  - STORY GROUND RETURN AIR NODE,9 ZONE PVAV DEMAND OUTLET NODE,9 ZONE PVAV
     Return Air Path Component Nodes,4,AIRLOOPHVAC:ZONEMIXER,AIR LOOP HVAC ZONE MIXER 1,ZONE MEDIUMOFFICE WHOLEBUILDING - MD OFFICE C END_A - STORY GROUND RETURN AIR NODE,9 ZONE PVAV DEMAND OUTLET NODE,9 ZONE PVAV
     Return Air Path Component Nodes,5,AIRLOOPHVAC:ZONEMIXER,AIR LOOP HVAC ZONE MIXER 1,ZONE MEDIUMOFFICE WHOLEBUILDING - MD OFFICE A END_B - STORY GROUND RETURN AIR NODE,9 ZONE PVAV DEMAND OUTLET NODE,9 ZONE PVAV
     Return Air Path Component Nodes,6,AIRLOOPHVAC:ZONEMIXER,AIR LOOP HVAC ZONE MIXER 1,ZONE MEDIUMOFFICE WHOLEBUILDING - MD OFFICE B END_A - STORY GROUND RETURN AIR NODE,9 ZONE PVAV DEMAND OUTLET NODE,9 ZONE PVAV
     Return Air Path Component Nodes,7,AIRLOOPHVAC:ZONEMIXER,AIR LOOP HVAC ZONE MIXER 1,ZONE MEDIUMOFFICE WHOLEBUILDING - MD OFFICE C END_B - STORY GROUND RETURN AIR NODE,9 ZONE PVAV DEMAND OUTLET NODE,9 ZONE PVAV
     Return Air Path Component Nodes,8,AIRLOOPHVAC:ZONEMIXER,AIR LOOP HVAC ZONE MIXER 1,ZONE MEDIUMOFFICE WHOLEBUILDING - MD OFFICE B  - STORY GROUND RETURN AIR NODE,9 ZONE PVAV DEMAND OUTLET NODE,9 ZONE PVAV
     Return Air Path Component Nodes,9,AIRLOOPHVAC:ZONEMIXER,AIR LOOP HVAC ZONE MIXER 1,ZONE MEDIUMOFFICE WHOLEBUILDING - MD OFFICE A END_A - STORY GROUND RETURN AIR NODE,9 ZONE PVAV DEMAND OUTLET NODE,9 ZONE PVAV
! <#Nodes on Return Air Path>,<Number of Nodes>
! <Return Air Path Node>,<Node Type>,<Node Count>,<Node Name>,<AirLoopHVAC Name>
   #Nodes on Return Air Path,10
   Return Air Path Node,Outlet Node,1,9 ZONE PVAV DEMAND OUTLET NODE,9 ZONE PVAV
   Return Air Path Node,Inlet Node,2,ZONE MEDIUMOFFICE WHOLEBUILDING - MD OFFICE C  - STORY GROUND RETURN AIR NODE,9 ZONE PVAV
   Return Air Path Node,Inlet Node,3,ZONE MEDIUMOFFICE WHOLEBUILDING - MD OFFICE B END_B - STORY GROUND RETURN AIR NODE,9 ZONE PVAV
   Return Air Path Node,Inlet Node,4,ZONE MEDIUMOFFICE WHOLEBUILDING - MD OFFICE A  - STORY GROUND RETURN AIR NODE,9 ZONE PVAV
   Return Air Path Node,Inlet Node,5,ZONE MEDIUMOFFICE WHOLEBUILDING - MD OFFICE C END_A - STORY GROUND RETURN AIR NODE,9 ZONE PVAV
   Return Air Path Node,Inlet Node,6,ZONE MEDIUMOFFICE WHOLEBUILDING - MD OFFICE A END_B - STORY GROUND RETURN AIR NODE,9 ZONE PVAV
   Return Air Path Node,Inlet Node,7,ZONE MEDIUMOFFICE WHOLEBUILDING - MD OFFICE B END_A - STORY GROUND RETURN AIR NODE,9 ZONE PVAV
   Return Air Path Node,Inlet Node,8,ZONE MEDIUMOFFICE WHOLEBUILDING - MD OFFICE C END_B - STORY GROUND RETURN AIR NODE,9 ZONE PVAV
   Return Air Path Node,Inlet Node,9,ZONE MEDIUMOFFICE WHOLEBUILDING - MD OFFICE B  - STORY GROUND RETURN AIR NODE,9 ZONE PVAV
   Return Air Path Node,Inlet Node,10,ZONE MEDIUMOFFICE WHOLEBUILDING - MD OFFICE A END_A - STORY GROUND RETURN AIR NODE,9 ZONE PVAV
! ===============================================================
! #Outdoor Air Nodes,<Number of Outdoor Air Nodes>
 #Outdoor Air Nodes,2
! <Outdoor Air Node>,<NodeNumber>,<Node Name>
 Outdoor Air Node,89,9 ZONE PVAV OUTDOOR AIR NODE
 Outdoor Air Node,90,MODEL OUTDOOR AIR NODE
! ===============================================================
! <#Component Sets>,<Number of Component Sets>
 #Component Sets,51
! <Component Set>,<Component Set Count>,<Parent Object Type>,<Parent Object Name>,<Component Type>,<Component Name>,<Inlet Node ID>,<Outlet Node ID>,<Description>
 Component Set,1,BRANCH,9 ZONE PVAV MAIN BRANCH,AIRLOOPHVAC:OUTDOORAIRSYSTEM,9 ZONE PVAV OA SYSTEM,9 ZONE PVAV SUPPLY INLET NODE,9 ZONE PVAV MIXED AIR NODE,Air Nodes
 Component Set,2,BRANCH,9 ZONE PVAV MAIN BRANCH,COILSYSTEM:COOLING:DX,9 ZONE PVAV 2SPD DX CLG COIL 2370KBTU/HR 9.0EER COILSYSTEM,9 ZONE PVAV MIXED AIR NODE,9 ZONE PVAV 2SPD DX CLG COIL OUTLET AIR NODE,Air Nodes
 Component Set,3,BRANCH,9 ZONE PVAV MAIN BRANCH,COIL:HEATING:WATER,9 ZONE PVAV MAIN HTG COIL,9 ZONE PVAV 2SPD DX CLG COIL OUTLET AIR NODE,9 ZONE PVAV MAIN HTG COIL OUTLET AIR NODE,Air Nodes
 Component Set,4,BRANCH,9 ZONE PVAV MAIN BRANCH,FAN:VARIABLEVOLUME,9 ZONE PVAV FAN,9 ZONE PVAV MAIN HTG COIL OUTLET AIR NODE,9 ZONE PVAV SUPPLY OUTLET NODE,Air Nodes
 Component Set,5,BRANCH,HOT WATER LOOP SUPPLY INLET BRANCH,PUMP:VARIABLESPEED,HOT WATER LOOP PUMP,HOT WATER LOOP SUPPLY INLET NODE,HOT WATER LOOP PUMP OUTLET WATER NODE,Water Nodes
 Component Set,6,BRANCH,HOT WATER LOOP SUPPLY BRANCH 1,BOILER:HOTWATER,BOILER 3169KBTU/HR 0.8 THERMAL EFF,BOILER INLET WATER NODE,BOILER OUTLET WATER NODE,Hot Water Nodes
 Component Set,7,BRANCH,HOT WATER LOOP SUPPLY BRANCH 2,PIPE:ADIABATIC,HOT WATER LOOP SUPPLY EQUIPMENT BYPASS,HOT WATER LOOP SUPPLY EQUIPMENT BYPASS INLET WATER NODE,HOT WATER LOOP SUPPLY EQUIPMENT BYPASS OUTLET WATER NODE,Pipe Nodes
 Component Set,8,BRANCH,HOT WATER LOOP SUPPLY OUTLET BRANCH,PIPE:ADIABATIC,HOT WATER LOOP SUPPLY OUTLET,HOT WATER LOOP SUPPLY OUTLET INLET WATER NODE,HOT WATER LOOP SUPPLY OUTLET NODE,Pipe Nodes
 Component Set,9,BRANCH,HOT WATER LOOP DEMAND INLET BRANCH,PIPE:ADIABATIC,HOT WATER LOOP DEMAND INLET,HOT WATER LOOP DEMAND INLET NODE,HOT WATER LOOP DEMAND INLET OUTLET WATER NODE,Pipe Nodes
 Component Set,10,BRANCH,HOT WATER LOOP DEMAND BRANCH 1,PIPE:ADIABATIC,HOT WATER LOOP COIL BYPASS,HOT WATER LOOP COIL BYPASS INLET WATER NODE,HOT WATER LOOP COIL BYPASS OUTLET WATER NODE,Pipe Nodes
 Component Set,11,BRANCH,HOT WATER LOOP DEMAND BRANCH 2,COIL:HEATING:WATER,9 ZONE PVAV MAIN HTG COIL,9 ZONE PVAV MAIN HTG COIL INLET WATER NODE,9 ZONE PVAV MAIN HTG COIL OUTLET WATER NODE,Water Nodes
 Component Set,12,BRANCH,HOT WATER LOOP DEMAND BRANCH 3,COIL:HEATING:WATER,ZONE MEDIUMOFFICE WHOLEBUILDING - MD OFFICE C  - STORY GROUND REHEAT COIL,ZONE MEDIUMOFFICE WHOLEBUILDING - MD OFFICE C  - STORY GROUND REHEAT COIL INLET WATER NODE,ZONE MEDIUMOFFICE WHOLEBUILDING - MD OFFICE C  - STORY GROUND REHEAT COIL OUTLET WATER NODE,Water Nodes
 Component Set,13,BRANCH,HOT WATER LOOP DEMAND BRANCH 4,COIL:HEATING:WATER,ZONE MEDIUMOFFICE WHOLEBUILDING - MD OFFICE B END_B - STORY GROUND REHEAT COIL,ZONE MEDIUMOFFICE WHOLEBUILDING - MD OFFICE B END_B - STORY GROUND REHEAT COIL INLET WATER NODE,ZONE MEDIUMOFFICE WHOLEBUILDING - MD OFFICE B END_B - STORY GROUND REHEAT COIL OUTLET WATER NODE,Water Nodes
 Component Set,14,BRANCH,HOT WATER LOOP DEMAND BRANCH 5,COIL:HEATING:WATER,ZONE MEDIUMOFFICE WHOLEBUILDING - MD OFFICE A  - STORY GROUND REHEAT COIL,ZONE MEDIUMOFFICE WHOLEBUILDING - MD OFFICE A  - STORY GROUND REHEAT COIL INLET WATER NODE,ZONE MEDIUMOFFICE WHOLEBUILDING - MD OFFICE A  - STORY GROUND REHEAT COIL OUTLET WATER NODE,Water Nodes
 Component Set,15,BRANCH,HOT WATER LOOP DEMAND BRANCH 6,COIL:HEATING:WATER,ZONE MEDIUMOFFICE WHOLEBUILDING - MD OFFICE C END_A - STORY GROUND REHEAT COIL,ZONE MEDIUMOFFICE WHOLEBUILDING - MD OFFICE C END_A - STORY GROUND REHEAT COIL INLET WATER NODE,ZONE MEDIUMOFFICE WHOLEBUILDING - MD OFFICE C END_A - STORY GROUND REHEAT COIL OUTLET WATER NODE,Water Nodes
 Component Set,16,BRANCH,HOT WATER LOOP DEMAND BRANCH 7,COIL:HEATING:WATER,ZONE MEDIUMOFFICE WHOLEBUILDING - MD OFFICE A END_B - STORY GROUND REHEAT COIL,ZONE MEDIUMOFFICE WHOLEBUILDING - MD OFFICE A END_B - STORY GROUND REHEAT COIL INLET WATER NODE,ZONE MEDIUMOFFICE WHOLEBUILDING - MD OFFICE A END_B - STORY GROUND REHEAT COIL OUTLET WATER NODE,Water Nodes
 Component Set,17,BRANCH,HOT WATER LOOP DEMAND BRANCH 8,COIL:HEATING:WATER,ZONE MEDIUMOFFICE WHOLEBUILDING - MD OFFICE B END_A - STORY GROUND REHEAT COIL,ZONE MEDIUMOFFICE WHOLEBUILDING - MD OFFICE B END_A - STORY GROUND REHEAT COIL INLET WATER NODE,ZONE MEDIUMOFFICE WHOLEBUILDING - MD OFFICE B END_A - STORY GROUND REHEAT COIL OUTLET WATER NODE,Water Nodes
 Component Set,18,BRANCH,HOT WATER LOOP DEMAND BRANCH 9,COIL:HEATING:WATER,ZONE MEDIUMOFFICE WHOLEBUILDING - MD OFFICE C END_B - STORY GROUND REHEAT COIL,ZONE MEDIUMOFFICE WHOLEBUILDING - MD OFFICE C END_B - STORY GROUND REHEAT COIL INLET WATER NODE,ZONE MEDIUMOFFICE WHOLEBUILDING - MD OFFICE C END_B - STORY GROUND REHEAT COIL OUTLET WATER NODE,Water Nodes
 Component Set,19,BRANCH,HOT WATER LOOP DEMAND BRANCH 10,COIL:HEATING:WATER,ZONE MEDIUMOFFICE WHOLEBUILDING - MD OFFICE B  - STORY GROUND REHEAT COIL,ZONE MEDIUMOFFICE WHOLEBUILDING - MD OFFICE B  - STORY GROUND REHEAT COIL INLET WATER NODE,ZONE MEDIUMOFFICE WHOLEBUILDING - MD OFFICE B  - STORY GROUND REHEAT COIL OUTLET WATER NODE,Water Nodes
 Component Set,20,BRANCH,HOT WATER LOOP DEMAND BRANCH 11,COIL:HEATING:WATER,ZONE MEDIUMOFFICE WHOLEBUILDING - MD OFFICE A END_A - STORY GROUND REHEAT COIL,ZONE MEDIUMOFFICE WHOLEBUILDING - MD OFFICE A END_A - STORY GROUND REHEAT COIL INLET WATER NODE,ZONE MEDIUMOFFICE WHOLEBUILDING - MD OFFICE A END_A - STORY GROUND REHEAT COIL OUTLET WATER NODE,Water Nodes
 Component Set,21,BRANCH,HOT WATER LOOP DEMAND BYPASS BRANCH,PIPE:ADIABATIC,HOT WATER LOOP DEMAND BYPASS PIPE,HOT WATER LOOP DEMAND BYPASS PIPE INLET NODE,HOT WATER LOOP DEMAND BYPASS PIPE OUTLET NODE,Pipe Nodes
 Component Set,22,BRANCH,HOT WATER LOOP DEMAND OUTLET BRANCH,PIPE:ADIABATIC,HOT WATER LOOP DEMAND OUTLET,HOT WATER LOOP DEMAND OUTLET INLET WATER NODE,HOT WATER LOOP DEMAND OUTLET NODE,Pipe Nodes
 Component Set,23,BRANCH,OFFICE SHARED SERVICE WATER LOOP SUPPLY INLET BRANCH,PUMP:CONSTANTSPEED,OFFICE SHARED SERVICE WATER LOOP CIRCULATOR PUMP,OFFICE SHARED SERVICE WATER LOOP SUPPLY INLET NODE,OFFICE SHARED SERVICE WATER LOOP CIRCULATOR PUMP OUTLET WATER NODE,Water Nodes
 Component Set,24,BRANCH,OFFICE SHARED SERVICE WATER LOOP SUPPLY BRANCH 1,WATERHEATER:MIXED,221GAL NATURALGAS WATER HEATER - 221KBTU/HR 0.805 THERM EFF,221GAL NATURALGAS WATER HEATER - 221KBTU/HR SUPPLY INLET WATER NODE,221GAL NATURALGAS WATER HEATER - 221KBTU/HR SUPPLY OUTLET WATER NODE,Use Side Water Nodes
 Component Set,25,BRANCH,OFFICE SHARED SERVICE WATER LOOP SUPPLY BRANCH 2,PIPE:ADIABATIC,PIPE ADIABATIC 1,PIPE ADIABATIC 1 INLET WATER NODE,PIPE ADIABATIC 1 OUTLET WATER NODE,Pipe Nodes
 Component Set,26,BRANCH,OFFICE SHARED SERVICE WATER LOOP SUPPLY OUTLET BRANCH,PIPE:ADIABATIC,PIPE ADIABATIC 3,PIPE ADIABATIC 3 INLET WATER NODE,OFFICE SHARED SERVICE WATER LOOP SUPPLY OUTLET NODE,Pipe Nodes
 Component Set,27,BRANCH,OFFICE SHARED SERVICE WATER LOOP DEMAND INLET BRANCH,PIPE:INDOOR,OFFICE SHARED SERVICE WATER LOOP PIPE 1245.2116285997306FT,OFFICE SHARED SERVICE WATER LOOP DEMAND INLET NODE,OFFICE SHARED SERVICE WATER LOOP PIPE 1245.2116285997306FT OUTLET WATER NODE,Pipe Nodes
 Component Set,28,BRANCH,OFFICE SHARED SERVICE WATER LOOP DEMAND BRANCH 1,PIPE:ADIABATIC,PIPE ADIABATIC 2,PIPE ADIABATIC 2 INLET WATER NODE,PIPE ADIABATIC 2 OUTLET WATER NODE,Pipe Nodes
 Component Set,29,BRANCH,OFFICE SHARED SERVICE WATER LOOP DEMAND BRANCH 2,WATERUSE:CONNECTIONS,MEDIUMOFFICE WHOLEBUILDING - MD OFFICE - 90.1-2007 WUC 6.14GPM AT 140F,MEDIUMOFFICE WHOLEBUILDING - MD OFFICE - 90.1-2007 WUC 6.14GPM AT 140F INLET WATER NODE,MEDIUMOFFICE WHOLEBUILDING - MD OFFICE - 90.1-2007 WUC 6.14GPM AT 140F OUTLET WATER NODE,DHW Nodes
 Component Set,30,BRANCH,OFFICE SHARED SERVICE WATER LOOP DEMAND BYPASS BRANCH,PIPE:ADIABATIC,OFFICE SHARED SERVICE WATER LOOP DEMAND BYPASS PIPE,OFFICE SHARED SERVICE WATER LOOP DEMAND BYPASS PIPE INLET NODE,OFFICE SHARED SERVICE WATER LOOP DEMAND BYPASS PIPE OUTLET NODE,Pipe Nodes
 Component Set,31,BRANCH,OFFICE SHARED SERVICE WATER LOOP DEMAND OUTLET BRANCH,PIPE:ADIABATIC,PIPE ADIABATIC 4,PIPE ADIABATIC 4 INLET WATER NODE,OFFICE SHARED SERVICE WATER LOOP DEMAND OUTLET NODE,Pipe Nodes
 Component Set,32,ZONEHVAC:AIRDISTRIBUTIONUNIT,ADU ZONE MEDIUMOFFICE WHOLEBUILDING - MD OFFICE A  - STORY GROUND VAV TERMINAL,AIRTERMINAL:SINGLEDUCT:VAV:REHEAT,ZONE MEDIUMOFFICE WHOLEBUILDING - MD OFFICE A  - STORY GROUND VAV TERMINAL,ZONE MEDIUMOFFICE WHOLEBUILDING - MD OFFICE A  - STORY GROUND VAV TERMINAL INLET AIR NODE,ZONE MEDIUMOFFICE WHOLEBUILDING - MD OFFICE A  - STORY GROUND VAV TERMINAL OUTLET AIR NODE,Air Nodes
 Component Set,33,ZONEHVAC:AIRDISTRIBUTIONUNIT,ADU ZONE MEDIUMOFFICE WHOLEBUILDING - MD OFFICE A END_A - STORY GROUND VAV TERMINAL,AIRTERMINAL:SINGLEDUCT:VAV:REHEAT,ZONE MEDIUMOFFICE WHOLEBUILDING - MD OFFICE A END_A - STORY GROUND VAV TERMINAL,ZONE MEDIUMOFFICE WHOLEBUILDING - MD OFFICE A END_A - STORY GROUND VAV TERMINAL INLET AIR NODE,ZONE MEDIUMOFFICE WHOLEBUILDING - MD OFFICE A END_A - STORY GROUND VAV TERMINAL OUTLET AIR NODE,Air Nodes
 Component Set,34,ZONEHVAC:AIRDISTRIBUTIONUNIT,ADU ZONE MEDIUMOFFICE WHOLEBUILDING - MD OFFICE A END_B - STORY GROUND VAV TERMINAL,AIRTERMINAL:SINGLEDUCT:VAV:REHEAT,ZONE MEDIUMOFFICE WHOLEBUILDING - MD OFFICE A END_B - STORY GROUND VAV TERMINAL,ZONE MEDIUMOFFICE WHOLEBUILDING - MD OFFICE A END_B - STORY GROUND VAV TERMINAL INLET AIR NODE,ZONE MEDIUMOFFICE WHOLEBUILDING - MD OFFICE A END_B - STORY GROUND VAV TERMINAL OUTLET AIR NODE,Air Nodes
 Component Set,35,ZONEHVAC:AIRDISTRIBUTIONUNIT,ADU ZONE MEDIUMOFFICE WHOLEBUILDING - MD OFFICE B  - STORY GROUND VAV TERMINAL,AIRTERMINAL:SINGLEDUCT:VAV:REHEAT,ZONE MEDIUMOFFICE WHOLEBUILDING - MD OFFICE B  - STORY GROUND VAV TERMINAL,ZONE MEDIUMOFFICE WHOLEBUILDING - MD OFFICE B  - STORY GROUND VAV TERMINAL INLET AIR NODE,ZONE MEDIUMOFFICE WHOLEBUILDING - MD OFFICE B  - STORY GROUND VAV TERMINAL OUTLET AIR NODE,Air Nodes
 Component Set,36,ZONEHVAC:AIRDISTRIBUTIONUNIT,ADU ZONE MEDIUMOFFICE WHOLEBUILDING - MD OFFICE B END_A - STORY GROUND VAV TERMINAL,AIRTERMINAL:SINGLEDUCT:VAV:REHEAT,ZONE MEDIUMOFFICE WHOLEBUILDING - MD OFFICE B END_A - STORY GROUND VAV TERMINAL,ZONE MEDIUMOFFICE WHOLEBUILDING - MD OFFICE B END_A - STORY GROUND VAV TERMINAL INLET AIR NODE,ZONE MEDIUMOFFICE WHOLEBUILDING - MD OFFICE B END_A - STORY GROUND VAV TERMINAL OUTLET AIR NODE,Air Nodes
 Component Set,37,ZONEHVAC:AIRDISTRIBUTIONUNIT,ADU ZONE MEDIUMOFFICE WHOLEBUILDING - MD OFFICE B END_B - STORY GROUND VAV TERMINAL,AIRTERMINAL:SINGLEDUCT:VAV:REHEAT,ZONE MEDIUMOFFICE WHOLEBUILDING - MD OFFICE B END_B - STORY GROUND VAV TERMINAL,ZONE MEDIUMOFFICE WHOLEBUILDING - MD OFFICE B END_B - STORY GROUND VAV TERMINAL INLET AIR NODE,ZONE MEDIUMOFFICE WHOLEBUILDING - MD OFFICE B END_B - STORY GROUND VAV TERMINAL OUTLET AIR NODE,Air Nodes
 Component Set,38,ZONEHVAC:AIRDISTRIBUTIONUNIT,ADU ZONE MEDIUMOFFICE WHOLEBUILDING - MD OFFICE C  - STORY GROUND VAV TERMINAL,AIRTERMINAL:SINGLEDUCT:VAV:REHEAT,ZONE MEDIUMOFFICE WHOLEBUILDING - MD OFFICE C  - STORY GROUND VAV TERMINAL,ZONE MEDIUMOFFICE WHOLEBUILDING - MD OFFICE C  - STORY GROUND VAV TERMINAL INLET AIR NODE,ZONE MEDIUMOFFICE WHOLEBUILDING - MD OFFICE C  - STORY GROUND VAV TERMINAL OUTLET AIR NODE,Air Nodes
 Component Set,39,ZONEHVAC:AIRDISTRIBUTIONUNIT,ADU ZONE MEDIUMOFFICE WHOLEBUILDING - MD OFFICE C END_A - STORY GROUND VAV TERMINAL,AIRTERMINAL:SINGLEDUCT:VAV:REHEAT,ZONE MEDIUMOFFICE WHOLEBUILDING - MD OFFICE C END_A - STORY GROUND VAV TERMINAL,ZONE MEDIUMOFFICE WHOLEBUILDING - MD OFFICE C END_A - STORY GROUND VAV TERMINAL INLET AIR NODE,ZONE MEDIUMOFFICE WHOLEBUILDING - MD OFFICE C END_A - STORY GROUND VAV TERMINAL OUTLET AIR NODE,Air Nodes
 Component Set,40,ZONEHVAC:AIRDISTRIBUTIONUNIT,ADU ZONE MEDIUMOFFICE WHOLEBUILDING - MD OFFICE C END_B - STORY GROUND VAV TERMINAL,AIRTERMINAL:SINGLEDUCT:VAV:REHEAT,ZONE MEDIUMOFFICE WHOLEBUILDING - MD OFFICE C END_B - STORY GROUND VAV TERMINAL,ZONE MEDIUMOFFICE WHOLEBUILDING - MD OFFICE C END_B - STORY GROUND VAV TERMINAL INLET AIR NODE,ZONE MEDIUMOFFICE WHOLEBUILDING - MD OFFICE C END_B - STORY GROUND VAV TERMINAL OUTLET AIR NODE,Air Nodes
 Component Set,41,AIRTERMINAL:SINGLEDUCT:VAV:REHEAT,ZONE MEDIUMOFFICE WHOLEBUILDING - MD OFFICE A  - STORY GROUND VAV TERMINAL,COIL:HEATING:WATER,ZONE MEDIUMOFFICE WHOLEBUILDING - MD OFFICE A  - STORY GROUND REHEAT COIL,ZONE MEDIUMOFFICE WHOLEBUILDING - MD OFFICE A  - STORY GROUND VAV TERMINAL DAMPER OUTLET,ZONE MEDIUMOFFICE WHOLEBUILDING - MD OFFICE A  - STORY GROUND VAV TERMINAL OUTLET AIR NODE,Air Nodes
 Component Set,42,AIRTERMINAL:SINGLEDUCT:VAV:REHEAT,ZONE MEDIUMOFFICE WHOLEBUILDING - MD OFFICE A END_A - STORY GROUND VAV TERMINAL,COIL:HEATING:WATER,ZONE MEDIUMOFFICE WHOLEBUILDING - MD OFFICE A END_A - STORY GROUND REHEAT COIL,ZONE MEDIUMOFFICE WHOLEBUILDING - MD OFFICE A END_A - STORY GROUND VAV TERMINAL DAMPER OUTLET,ZONE MEDIUMOFFICE WHOLEBUILDING - MD OFFICE A END_A - STORY GROUND VAV TERMINAL OUTLET AIR NODE,Air Nodes
 Component Set,43,AIRTERMINAL:SINGLEDUCT:VAV:REHEAT,ZONE MEDIUMOFFICE WHOLEBUILDING - MD OFFICE A END_B - STORY GROUND VAV TERMINAL,COIL:HEATING:WATER,ZONE MEDIUMOFFICE WHOLEBUILDING - MD OFFICE A END_B - STORY GROUND REHEAT COIL,ZONE MEDIUMOFFICE WHOLEBUILDING - MD OFFICE A END_B - STORY GROUND VAV TERMINAL DAMPER OUTLET,ZONE MEDIUMOFFICE WHOLEBUILDING - MD OFFICE A END_B - STORY GROUND VAV TERMINAL OUTLET AIR NODE,Air Nodes
 Component Set,44,AIRTERMINAL:SINGLEDUCT:VAV:REHEAT,ZONE MEDIUMOFFICE WHOLEBUILDING - MD OFFICE B  - STORY GROUND VAV TERMINAL,COIL:HEATING:WATER,ZONE MEDIUMOFFICE WHOLEBUILDING - MD OFFICE B  - STORY GROUND REHEAT COIL,ZONE MEDIUMOFFICE WHOLEBUILDING - MD OFFICE B  - STORY GROUND VAV TERMINAL DAMPER OUTLET,ZONE MEDIUMOFFICE WHOLEBUILDING - MD OFFICE B  - STORY GROUND VAV TERMINAL OUTLET AIR NODE,Air Nodes
 Component Set,45,AIRTERMINAL:SINGLEDUCT:VAV:REHEAT,ZONE MEDIUMOFFICE WHOLEBUILDING - MD OFFICE B END_A - STORY GROUND VAV TERMINAL,COIL:HEATING:WATER,ZONE MEDIUMOFFICE WHOLEBUILDING - MD OFFICE B END_A - STORY GROUND REHEAT COIL,ZONE MEDIUMOFFICE WHOLEBUILDING - MD OFFICE B END_A - STORY GROUND VAV TERMINAL DAMPER OUTLET,ZONE MEDIUMOFFICE WHOLEBUILDING - MD OFFICE B END_A - STORY GROUND VAV TERMINAL OUTLET AIR NODE,Air Nodes
 Component Set,46,AIRTERMINAL:SINGLEDUCT:VAV:REHEAT,ZONE MEDIUMOFFICE WHOLEBUILDING - MD OFFICE B END_B - STORY GROUND VAV TERMINAL,COIL:HEATING:WATER,ZONE MEDIUMOFFICE WHOLEBUILDING - MD OFFICE B END_B - STORY GROUND REHEAT COIL,ZONE MEDIUMOFFICE WHOLEBUILDING - MD OFFICE B END_B - STORY GROUND VAV TERMINAL DAMPER OUTLET,ZONE MEDIUMOFFICE WHOLEBUILDING - MD OFFICE B END_B - STORY GROUND VAV TERMINAL OUTLET AIR NODE,Air Nodes
 Component Set,47,AIRTERMINAL:SINGLEDUCT:VAV:REHEAT,ZONE MEDIUMOFFICE WHOLEBUILDING - MD OFFICE C  - STORY GROUND VAV TERMINAL,COIL:HEATING:WATER,ZONE MEDIUMOFFICE WHOLEBUILDING - MD OFFICE C  - STORY GROUND REHEAT COIL,ZONE MEDIUMOFFICE WHOLEBUILDING - MD OFFICE C  - STORY GROUND VAV TERMINAL DAMPER OUTLET,ZONE MEDIUMOFFICE WHOLEBUILDING - MD OFFICE C  - STORY GROUND VAV TERMINAL OUTLET AIR NODE,Air Nodes
 Component Set,48,AIRTERMINAL:SINGLEDUCT:VAV:REHEAT,ZONE MEDIUMOFFICE WHOLEBUILDING - MD OFFICE C END_A - STORY GROUND VAV TERMINAL,COIL:HEATING:WATER,ZONE MEDIUMOFFICE WHOLEBUILDING - MD OFFICE C END_A - STORY GROUND REHEAT COIL,ZONE MEDIUMOFFICE WHOLEBUILDING - MD OFFICE C END_A - STORY GROUND VAV TERMINAL DAMPER OUTLET,ZONE MEDIUMOFFICE WHOLEBUILDING - MD OFFICE C END_A - STORY GROUND VAV TERMINAL OUTLET AIR NODE,Air Nodes
 Component Set,49,AIRTERMINAL:SINGLEDUCT:VAV:REHEAT,ZONE MEDIUMOFFICE WHOLEBUILDING - MD OFFICE C END_B - STORY GROUND VAV TERMINAL,COIL:HEATING:WATER,ZONE MEDIUMOFFICE WHOLEBUILDING - MD OFFICE C END_B - STORY GROUND REHEAT COIL,ZONE MEDIUMOFFICE WHOLEBUILDING - MD OFFICE C END_B - STORY GROUND VAV TERMINAL DAMPER OUTLET,ZONE MEDIUMOFFICE WHOLEBUILDING - MD OFFICE C END_B - STORY GROUND VAV TERMINAL OUTLET AIR NODE,Air Nodes
 Component Set,50,AIRLOOPHVAC:OUTDOORAIRSYSTEM,9 ZONE PVAV OA SYSTEM,OUTDOORAIR:MIXER,9 ZONE PVAV OA SYSTEM OUTDOOR AIR MIXER,9 ZONE PVAV OUTDOOR AIR NODE,9 ZONE PVAV MIXED AIR NODE,Air Nodes
 Component Set,51,COILSYSTEM:COOLING:DX,9 ZONE PVAV 2SPD DX CLG COIL 2370KBTU/HR 9.0EER COILSYSTEM,COIL:COOLING:DX:TWOSPEED,9 ZONE PVAV 2SPD DX CLG COIL 2370KBTU/HR 9.0EER,9 ZONE PVAV MIXED AIR NODE,9 ZONE PVAV 2SPD DX CLG COIL OUTLET AIR NODE,Air Nodes
! ===============================================================
! <# Plant Loops>,<Number of Plant Loops>
 #Plant Loops,2
! <Plant Loop>,<Plant Loop Name>,<Loop Type>,<Inlet Node Name>,<Outlet Node Name>,<Branch List>,<Connector List>
! <Plant Loop Connector>,<Connector Type>,<Connector Name>,<Loop Name>,<Loop Type>,<Number of Inlets/Outlets>
! <Plant Loop Connector Branches>,<Connector Node Count>,<Connector Type>,<Connector Name>,<Inlet Branch>,<Outlet Branch>,<Loop Name>,<Loop Type>
! <Plant Loop Connector Nodes>,<Connector Node Count>,<Connector Type>,<Connector Name>,<Inlet Node>,<Outlet Node>,<Loop Name>,<Loop Type>
! <Plant Loop Supply Connection>,<Plant Loop Name>,<Supply Side Outlet Node Name>,<Demand Side Inlet Node Name>
! <Plant Loop Return Connection>,<Plant Loop Name>,<Demand Side Outlet Node Name>,<Supply Side Inlet Node Name>
 Plant Loop,HOT WATER LOOP,Demand,HOT WATER LOOP DEMAND INLET NODE,HOT WATER LOOP DEMAND OUTLET NODE,HOT WATER LOOP DEMAND BRANCHES,HOT WATER LOOP DEMAND CONNECTOR LIST
   Plant Loop Connector,Splitter,HOT WATER LOOP DEMAND SPLITTER,HOT WATER LOOP,Demand,12
     Plant Loop Connector Branches,1,Splitter,HOT WATER LOOP DEMAND SPLITTER,HOT WATER LOOP DEMAND INLET BRANCH,HOT WATER LOOP DEMAND BRANCH 1,HOT WATER LOOP,Demand
     Plant Loop Connector Nodes,   1,Splitter,HOT WATER LOOP DEMAND SPLITTER,HOT WATER LOOP DEMAND INLET OUTLET WATER NODE,HOT WATER LOOP COIL BYPASS INLET WATER NODE,HOT WATER LOOP,Demand
     Plant Loop Connector Branches,2,Splitter,HOT WATER LOOP DEMAND SPLITTER,HOT WATER LOOP DEMAND INLET BRANCH,HOT WATER LOOP DEMAND BRANCH 2,HOT WATER LOOP,Demand
     Plant Loop Connector Nodes,   2,Splitter,HOT WATER LOOP DEMAND SPLITTER,HOT WATER LOOP DEMAND INLET OUTLET WATER NODE,9 ZONE PVAV MAIN HTG COIL INLET WATER NODE,HOT WATER LOOP,Demand
     Plant Loop Connector Branches,3,Splitter,HOT WATER LOOP DEMAND SPLITTER,HOT WATER LOOP DEMAND INLET BRANCH,HOT WATER LOOP DEMAND BRANCH 3,HOT WATER LOOP,Demand
     Plant Loop Connector Nodes,   3,Splitter,HOT WATER LOOP DEMAND SPLITTER,HOT WATER LOOP DEMAND INLET OUTLET WATER NODE,ZONE MEDIUMOFFICE WHOLEBUILDING - MD OFFICE C  - STORY GROUND REHEAT COIL INLET WATER NODE,HOT WATER LOOP,Demand
     Plant Loop Connector Branches,4,Splitter,HOT WATER LOOP DEMAND SPLITTER,HOT WATER LOOP DEMAND INLET BRANCH,HOT WATER LOOP DEMAND BRANCH 4,HOT WATER LOOP,Demand
     Plant Loop Connector Nodes,   4,Splitter,HOT WATER LOOP DEMAND SPLITTER,HOT WATER LOOP DEMAND INLET OUTLET WATER NODE,ZONE MEDIUMOFFICE WHOLEBUILDING - MD OFFICE B END_B - STORY GROUND REHEAT COIL INLET WATER NODE,HOT WATER LOOP,Demand
     Plant Loop Connector Branches,5,Splitter,HOT WATER LOOP DEMAND SPLITTER,HOT WATER LOOP DEMAND INLET BRANCH,HOT WATER LOOP DEMAND BRANCH 5,HOT WATER LOOP,Demand
     Plant Loop Connector Nodes,   5,Splitter,HOT WATER LOOP DEMAND SPLITTER,HOT WATER LOOP DEMAND INLET OUTLET WATER NODE,ZONE MEDIUMOFFICE WHOLEBUILDING - MD OFFICE A  - STORY GROUND REHEAT COIL INLET WATER NODE,HOT WATER LOOP,Demand
     Plant Loop Connector Branches,6,Splitter,HOT WATER LOOP DEMAND SPLITTER,HOT WATER LOOP DEMAND INLET BRANCH,HOT WATER LOOP DEMAND BRANCH 6,HOT WATER LOOP,Demand
     Plant Loop Connector Nodes,   6,Splitter,HOT WATER LOOP DEMAND SPLITTER,HOT WATER LOOP DEMAND INLET OUTLET WATER NODE,ZONE MEDIUMOFFICE WHOLEBUILDING - MD OFFICE C END_A - STORY GROUND REHEAT COIL INLET WATER NODE,HOT WATER LOOP,Demand
     Plant Loop Connector Branches,7,Splitter,HOT WATER LOOP DEMAND SPLITTER,HOT WATER LOOP DEMAND INLET BRANCH,HOT WATER LOOP DEMAND BRANCH 7,HOT WATER LOOP,Demand
     Plant Loop Connector Nodes,   7,Splitter,HOT WATER LOOP DEMAND SPLITTER,HOT WATER LOOP DEMAND INLET OUTLET WATER NODE,ZONE MEDIUMOFFICE WHOLEBUILDING - MD OFFICE A END_B - STORY GROUND REHEAT COIL INLET WATER NODE,HOT WATER LOOP,Demand
     Plant Loop Connector Branches,8,Splitter,HOT WATER LOOP DEMAND SPLITTER,HOT WATER LOOP DEMAND INLET BRANCH,HOT WATER LOOP DEMAND BRANCH 8,HOT WATER LOOP,Demand
     Plant Loop Connector Nodes,   8,Splitter,HOT WATER LOOP DEMAND SPLITTER,HOT WATER LOOP DEMAND INLET OUTLET WATER NODE,ZONE MEDIUMOFFICE WHOLEBUILDING - MD OFFICE B END_A - STORY GROUND REHEAT COIL INLET WATER NODE,HOT WATER LOOP,Demand
     Plant Loop Connector Branches,9,Splitter,HOT WATER LOOP DEMAND SPLITTER,HOT WATER LOOP DEMAND INLET BRANCH,HOT WATER LOOP DEMAND BRANCH 9,HOT WATER LOOP,Demand
     Plant Loop Connector Nodes,   9,Splitter,HOT WATER LOOP DEMAND SPLITTER,HOT WATER LOOP DEMAND INLET OUTLET WATER NODE,ZONE MEDIUMOFFICE WHOLEBUILDING - MD OFFICE C END_B - STORY GROUND REHEAT COIL INLET WATER NODE,HOT WATER LOOP,Demand
     Plant Loop Connector Branches,10,Splitter,HOT WATER LOOP DEMAND SPLITTER,HOT WATER LOOP DEMAND INLET BRANCH,HOT WATER LOOP DEMAND BRANCH 10,HOT WATER LOOP,Demand
     Plant Loop Connector Nodes,   10,Splitter,HOT WATER LOOP DEMAND SPLITTER,HOT WATER LOOP DEMAND INLET OUTLET WATER NODE,ZONE MEDIUMOFFICE WHOLEBUILDING - MD OFFICE B  - STORY GROUND REHEAT COIL INLET WATER NODE,HOT WATER LOOP,Demand
     Plant Loop Connector Branches,11,Splitter,HOT WATER LOOP DEMAND SPLITTER,HOT WATER LOOP DEMAND INLET BRANCH,HOT WATER LOOP DEMAND BRANCH 11,HOT WATER LOOP,Demand
     Plant Loop Connector Nodes,   11,Splitter,HOT WATER LOOP DEMAND SPLITTER,HOT WATER LOOP DEMAND INLET OUTLET WATER NODE,ZONE MEDIUMOFFICE WHOLEBUILDING - MD OFFICE A END_A - STORY GROUND REHEAT COIL INLET WATER NODE,HOT WATER LOOP,Demand
     Plant Loop Connector Branches,12,Splitter,HOT WATER LOOP DEMAND SPLITTER,HOT WATER LOOP DEMAND INLET BRANCH,HOT WATER LOOP DEMAND BYPASS BRANCH,HOT WATER LOOP,Demand
     Plant Loop Connector Nodes,   12,Splitter,HOT WATER LOOP DEMAND SPLITTER,HOT WATER LOOP DEMAND INLET OUTLET WATER NODE,HOT WATER LOOP DEMAND BYPASS PIPE INLET NODE,HOT WATER LOOP,Demand
   Plant Loop Connector,Mixer,HOT WATER LOOP DEMAND MIXER,HOT WATER LOOP,Demand,12
     Plant Loop Connector Branches,1,Mixer,HOT WATER LOOP DEMAND MIXER,HOT WATER LOOP DEMAND BRANCH 1,HOT WATER LOOP DEMAND OUTLET BRANCH,HOT WATER LOOP,Demand
     Plant Loop Connector Nodes,   1,Mixer,HOT WATER LOOP DEMAND MIXER,HOT WATER LOOP COIL BYPASS OUTLET WATER NODE,HOT WATER LOOP DEMAND OUTLET INLET WATER NODE,HOT WATER LOOP,Demand
     Plant Loop Connector Branches,2,Mixer,HOT WATER LOOP DEMAND MIXER,HOT WATER LOOP DEMAND BRANCH 2,HOT WATER LOOP DEMAND OUTLET BRANCH,HOT WATER LOOP,Demand
     Plant Loop Connector Nodes,   2,Mixer,HOT WATER LOOP DEMAND MIXER,9 ZONE PVAV MAIN HTG COIL OUTLET WATER NODE,HOT WATER LOOP DEMAND OUTLET INLET WATER NODE,HOT WATER LOOP,Demand
     Plant Loop Connector Branches,3,Mixer,HOT WATER LOOP DEMAND MIXER,HOT WATER LOOP DEMAND BRANCH 3,HOT WATER LOOP DEMAND OUTLET BRANCH,HOT WATER LOOP,Demand
     Plant Loop Connector Nodes,   3,Mixer,HOT WATER LOOP DEMAND MIXER,ZONE MEDIUMOFFICE WHOLEBUILDING - MD OFFICE C  - STORY GROUND REHEAT COIL OUTLET WATER NODE,HOT WATER LOOP DEMAND OUTLET INLET WATER NODE,HOT WATER LOOP,Demand
     Plant Loop Connector Branches,4,Mixer,HOT WATER LOOP DEMAND MIXER,HOT WATER LOOP DEMAND BRANCH 4,HOT WATER LOOP DEMAND OUTLET BRANCH,HOT WATER LOOP,Demand
     Plant Loop Connector Nodes,   4,Mixer,HOT WATER LOOP DEMAND MIXER,ZONE MEDIUMOFFICE WHOLEBUILDING - MD OFFICE B END_B - STORY GROUND REHEAT COIL OUTLET WATER NODE,HOT WATER LOOP DEMAND OUTLET INLET WATER NODE,HOT WATER LOOP,Demand
     Plant Loop Connector Branches,5,Mixer,HOT WATER LOOP DEMAND MIXER,HOT WATER LOOP DEMAND BRANCH 5,HOT WATER LOOP DEMAND OUTLET BRANCH,HOT WATER LOOP,Demand
     Plant Loop Connector Nodes,   5,Mixer,HOT WATER LOOP DEMAND MIXER,ZONE MEDIUMOFFICE WHOLEBUILDING - MD OFFICE A  - STORY GROUND REHEAT COIL OUTLET WATER NODE,HOT WATER LOOP DEMAND OUTLET INLET WATER NODE,HOT WATER LOOP,Demand
     Plant Loop Connector Branches,6,Mixer,HOT WATER LOOP DEMAND MIXER,HOT WATER LOOP DEMAND BRANCH 6,HOT WATER LOOP DEMAND OUTLET BRANCH,HOT WATER LOOP,Demand
     Plant Loop Connector Nodes,   6,Mixer,HOT WATER LOOP DEMAND MIXER,ZONE MEDIUMOFFICE WHOLEBUILDING - MD OFFICE C END_A - STORY GROUND REHEAT COIL OUTLET WATER NODE,HOT WATER LOOP DEMAND OUTLET INLET WATER NODE,HOT WATER LOOP,Demand
     Plant Loop Connector Branches,7,Mixer,HOT WATER LOOP DEMAND MIXER,HOT WATER LOOP DEMAND BRANCH 7,HOT WATER LOOP DEMAND OUTLET BRANCH,HOT WATER LOOP,Demand
     Plant Loop Connector Nodes,   7,Mixer,HOT WATER LOOP DEMAND MIXER,ZONE MEDIUMOFFICE WHOLEBUILDING - MD OFFICE A END_B - STORY GROUND REHEAT COIL OUTLET WATER NODE,HOT WATER LOOP DEMAND OUTLET INLET WATER NODE,HOT WATER LOOP,Demand
     Plant Loop Connector Branches,8,Mixer,HOT WATER LOOP DEMAND MIXER,HOT WATER LOOP DEMAND BRANCH 8,HOT WATER LOOP DEMAND OUTLET BRANCH,HOT WATER LOOP,Demand
     Plant Loop Connector Nodes,   8,Mixer,HOT WATER LOOP DEMAND MIXER,ZONE MEDIUMOFFICE WHOLEBUILDING - MD OFFICE B END_A - STORY GROUND REHEAT COIL OUTLET WATER NODE,HOT WATER LOOP DEMAND OUTLET INLET WATER NODE,HOT WATER LOOP,Demand
     Plant Loop Connector Branches,9,Mixer,HOT WATER LOOP DEMAND MIXER,HOT WATER LOOP DEMAND BRANCH 9,HOT WATER LOOP DEMAND OUTLET BRANCH,HOT WATER LOOP,Demand
     Plant Loop Connector Nodes,   9,Mixer,HOT WATER LOOP DEMAND MIXER,ZONE MEDIUMOFFICE WHOLEBUILDING - MD OFFICE C END_B - STORY GROUND REHEAT COIL OUTLET WATER NODE,HOT WATER LOOP DEMAND OUTLET INLET WATER NODE,HOT WATER LOOP,Demand
     Plant Loop Connector Branches,10,Mixer,HOT WATER LOOP DEMAND MIXER,HOT WATER LOOP DEMAND BRANCH 10,HOT WATER LOOP DEMAND OUTLET BRANCH,HOT WATER LOOP,Demand
     Plant Loop Connector Nodes,   10,Mixer,HOT WATER LOOP DEMAND MIXER,ZONE MEDIUMOFFICE WHOLEBUILDING - MD OFFICE B  - STORY GROUND REHEAT COIL OUTLET WATER NODE,HOT WATER LOOP DEMAND OUTLET INLET WATER NODE,HOT WATER LOOP,Demand
     Plant Loop Connector Branches,11,Mixer,HOT WATER LOOP DEMAND MIXER,HOT WATER LOOP DEMAND BRANCH 11,HOT WATER LOOP DEMAND OUTLET BRANCH,HOT WATER LOOP,Demand
     Plant Loop Connector Nodes,   11,Mixer,HOT WATER LOOP DEMAND MIXER,ZONE MEDIUMOFFICE WHOLEBUILDING - MD OFFICE A END_A - STORY GROUND REHEAT COIL OUTLET WATER NODE,HOT WATER LOOP DEMAND OUTLET INLET WATER NODE,HOT WATER LOOP,Demand
     Plant Loop Connector Branches,12,Mixer,HOT WATER LOOP DEMAND MIXER,HOT WATER LOOP DEMAND BYPASS BRANCH,HOT WATER LOOP DEMAND OUTLET BRANCH,HOT WATER LOOP,Demand
     Plant Loop Connector Nodes,   12,Mixer,HOT WATER LOOP DEMAND MIXER,HOT WATER LOOP DEMAND BYPASS PIPE OUTLET NODE,HOT WATER LOOP DEMAND OUTLET INLET WATER NODE,HOT WATER LOOP,Demand
 Plant Loop,HOT WATER LOOP,Supply,HOT WATER LOOP SUPPLY INLET NODE,HOT WATER LOOP SUPPLY OUTLET NODE,HOT WATER LOOP SUPPLY BRANCHES,HOT WATER LOOP SUPPLY CONNECTOR LIST
   Plant Loop Connector,Splitter,HOT WATER LOOP SUPPLY SPLITTER,HOT WATER LOOP,Supply,2
     Plant Loop Connector Branches,1,Splitter,HOT WATER LOOP SUPPLY SPLITTER,HOT WATER LOOP SUPPLY INLET BRANCH,HOT WATER LOOP SUPPLY BRANCH 1,HOT WATER LOOP,Supply
     Plant Loop Connector Nodes,   1,Splitter,HOT WATER LOOP SUPPLY SPLITTER,HOT WATER LOOP PUMP OUTLET WATER NODE,BOILER INLET WATER NODE,HOT WATER LOOP,Supply
     Plant Loop Connector Branches,2,Splitter,HOT WATER LOOP SUPPLY SPLITTER,HOT WATER LOOP SUPPLY INLET BRANCH,HOT WATER LOOP SUPPLY BRANCH 2,HOT WATER LOOP,Supply
     Plant Loop Connector Nodes,   2,Splitter,HOT WATER LOOP SUPPLY SPLITTER,HOT WATER LOOP PUMP OUTLET WATER NODE,HOT WATER LOOP SUPPLY EQUIPMENT BYPASS INLET WATER NODE,HOT WATER LOOP,Supply
   Plant Loop Connector,Mixer,HOT WATER LOOP SUPPLY MIXER,HOT WATER LOOP,Supply,2
     Plant Loop Connector Branches,1,Mixer,HOT WATER LOOP SUPPLY MIXER,HOT WATER LOOP SUPPLY BRANCH 1,HOT WATER LOOP SUPPLY OUTLET BRANCH,HOT WATER LOOP,Supply
     Plant Loop Connector Nodes,   1,Mixer,HOT WATER LOOP SUPPLY MIXER,BOILER OUTLET WATER NODE,HOT WATER LOOP SUPPLY OUTLET INLET WATER NODE,HOT WATER LOOP,Supply
     Plant Loop Connector Branches,2,Mixer,HOT WATER LOOP SUPPLY MIXER,HOT WATER LOOP SUPPLY BRANCH 2,HOT WATER LOOP SUPPLY OUTLET BRANCH,HOT WATER LOOP,Supply
     Plant Loop Connector Nodes,   2,Mixer,HOT WATER LOOP SUPPLY MIXER,HOT WATER LOOP SUPPLY EQUIPMENT BYPASS OUTLET WATER NODE,HOT WATER LOOP SUPPLY OUTLET INLET WATER NODE,HOT WATER LOOP,Supply
 Plant Loop Supply Connection,HOT WATER LOOP,HOT WATER LOOP SUPPLY OUTLET NODE,HOT WATER LOOP DEMAND INLET NODE
 Plant Loop Return Connection,HOT WATER LOOP,HOT WATER LOOP DEMAND OUTLET NODE,HOT WATER LOOP SUPPLY INLET NODE
 Plant Loop,OFFICE SHARED SERVICE WATER LOOP,Demand,OFFICE SHARED SERVICE WATER LOOP DEMAND INLET NODE,OFFICE SHARED SERVICE WATER LOOP DEMAND OUTLET NODE,OFFICE SHARED SERVICE WATER LOOP DEMAND BRANCHES,OFFICE SHARED SERVICE WATER LOOP DEMAND CONNECTOR LIST
   Plant Loop Connector,Splitter,OFFICE SHARED SERVICE WATER LOOP DEMAND SPLITTER,OFFICE SHARED SERVICE WATER LOOP,Demand,3
     Plant Loop Connector Branches,1,Splitter,OFFICE SHARED SERVICE WATER LOOP DEMAND SPLITTER,OFFICE SHARED SERVICE WATER LOOP DEMAND INLET BRANCH,OFFICE SHARED SERVICE WATER LOOP DEMAND BRANCH 1,OFFICE SHARED SERVICE WATER LOOP,Demand
     Plant Loop Connector Nodes,   1,Splitter,OFFICE SHARED SERVICE WATER LOOP DEMAND SPLITTER,OFFICE SHARED SERVICE WATER LOOP PIPE 1245.2116285997306FT OUTLET WATER NODE,PIPE ADIABATIC 2 INLET WATER NODE,OFFICE SHARED SERVICE WATER LOOP,Demand
     Plant Loop Connector Branches,2,Splitter,OFFICE SHARED SERVICE WATER LOOP DEMAND SPLITTER,OFFICE SHARED SERVICE WATER LOOP DEMAND INLET BRANCH,OFFICE SHARED SERVICE WATER LOOP DEMAND BRANCH 2,OFFICE SHARED SERVICE WATER LOOP,Demand
     Plant Loop Connector Nodes,   2,Splitter,OFFICE SHARED SERVICE WATER LOOP DEMAND SPLITTER,OFFICE SHARED SERVICE WATER LOOP PIPE 1245.2116285997306FT OUTLET WATER NODE,MEDIUMOFFICE WHOLEBUILDING - MD OFFICE - 90.1-2007 WUC 6.14GPM AT 140F INLET WATER NODE,OFFICE SHARED SERVICE WATER LOOP,Demand
     Plant Loop Connector Branches,3,Splitter,OFFICE SHARED SERVICE WATER LOOP DEMAND SPLITTER,OFFICE SHARED SERVICE WATER LOOP DEMAND INLET BRANCH,OFFICE SHARED SERVICE WATER LOOP DEMAND BYPASS BRANCH,OFFICE SHARED SERVICE WATER LOOP,Demand
     Plant Loop Connector Nodes,   3,Splitter,OFFICE SHARED SERVICE WATER LOOP DEMAND SPLITTER,OFFICE SHARED SERVICE WATER LOOP PIPE 1245.2116285997306FT OUTLET WATER NODE,OFFICE SHARED SERVICE WATER LOOP DEMAND BYPASS PIPE INLET NODE,OFFICE SHARED SERVICE WATER LOOP,Demand
   Plant Loop Connector,Mixer,OFFICE SHARED SERVICE WATER LOOP DEMAND MIXER,OFFICE SHARED SERVICE WATER LOOP,Demand,3
     Plant Loop Connector Branches,1,Mixer,OFFICE SHARED SERVICE WATER LOOP DEMAND MIXER,OFFICE SHARED SERVICE WATER LOOP DEMAND BRANCH 1,OFFICE SHARED SERVICE WATER LOOP DEMAND OUTLET BRANCH,OFFICE SHARED SERVICE WATER LOOP,Demand
     Plant Loop Connector Nodes,   1,Mixer,OFFICE SHARED SERVICE WATER LOOP DEMAND MIXER,PIPE ADIABATIC 2 OUTLET WATER NODE,PIPE ADIABATIC 4 INLET WATER NODE,OFFICE SHARED SERVICE WATER LOOP,Demand
     Plant Loop Connector Branches,2,Mixer,OFFICE SHARED SERVICE WATER LOOP DEMAND MIXER,OFFICE SHARED SERVICE WATER LOOP DEMAND BRANCH 2,OFFICE SHARED SERVICE WATER LOOP DEMAND OUTLET BRANCH,OFFICE SHARED SERVICE WATER LOOP,Demand
     Plant Loop Connector Nodes,   2,Mixer,OFFICE SHARED SERVICE WATER LOOP DEMAND MIXER,MEDIUMOFFICE WHOLEBUILDING - MD OFFICE - 90.1-2007 WUC 6.14GPM AT 140F OUTLET WATER NODE,PIPE ADIABATIC 4 INLET WATER NODE,OFFICE SHARED SERVICE WATER LOOP,Demand
     Plant Loop Connector Branches,3,Mixer,OFFICE SHARED SERVICE WATER LOOP DEMAND MIXER,OFFICE SHARED SERVICE WATER LOOP DEMAND BYPASS BRANCH,OFFICE SHARED SERVICE WATER LOOP DEMAND OUTLET BRANCH,OFFICE SHARED SERVICE WATER LOOP,Demand
     Plant Loop Connector Nodes,   3,Mixer,OFFICE SHARED SERVICE WATER LOOP DEMAND MIXER,OFFICE SHARED SERVICE WATER LOOP DEMAND BYPASS PIPE OUTLET NODE,PIPE ADIABATIC 4 INLET WATER NODE,OFFICE SHARED SERVICE WATER LOOP,Demand
 Plant Loop,OFFICE SHARED SERVICE WATER LOOP,Supply,OFFICE SHARED SERVICE WATER LOOP SUPPLY INLET NODE,OFFICE SHARED SERVICE WATER LOOP SUPPLY OUTLET NODE,OFFICE SHARED SERVICE WATER LOOP SUPPLY BRANCHES,OFFICE SHARED SERVICE WATER LOOP SUPPLY CONNECTOR LIST
   Plant Loop Connector,Splitter,OFFICE SHARED SERVICE WATER LOOP SUPPLY SPLITTER,OFFICE SHARED SERVICE WATER LOOP,Supply,2
     Plant Loop Connector Branches,1,Splitter,OFFICE SHARED SERVICE WATER LOOP SUPPLY SPLITTER,OFFICE SHARED SERVICE WATER LOOP SUPPLY INLET BRANCH,OFFICE SHARED SERVICE WATER LOOP SUPPLY BRANCH 1,OFFICE SHARED SERVICE WATER LOOP,Supply
     Plant Loop Connector Nodes,   1,Splitter,OFFICE SHARED SERVICE WATER LOOP SUPPLY SPLITTER,OFFICE SHARED SERVICE WATER LOOP CIRCULATOR PUMP OUTLET WATER NODE,221GAL NATURALGAS WATER HEATER - 221KBTU/HR SUPPLY INLET WATER NODE,OFFICE SHARED SERVICE WATER LOOP,Supply
     Plant Loop Connector Branches,2,Splitter,OFFICE SHARED SERVICE WATER LOOP SUPPLY SPLITTER,OFFICE SHARED SERVICE WATER LOOP SUPPLY INLET BRANCH,OFFICE SHARED SERVICE WATER LOOP SUPPLY BRANCH 2,OFFICE SHARED SERVICE WATER LOOP,Supply
     Plant Loop Connector Nodes,   2,Splitter,OFFICE SHARED SERVICE WATER LOOP SUPPLY SPLITTER,OFFICE SHARED SERVICE WATER LOOP CIRCULATOR PUMP OUTLET WATER NODE,PIPE ADIABATIC 1 INLET WATER NODE,OFFICE SHARED SERVICE WATER LOOP,Supply
   Plant Loop Connector,Mixer,OFFICE SHARED SERVICE WATER LOOP SUPPLY MIXER,OFFICE SHARED SERVICE WATER LOOP,Supply,2
     Plant Loop Connector Branches,1,Mixer,OFFICE SHARED SERVICE WATER LOOP SUPPLY MIXER,OFFICE SHARED SERVICE WATER LOOP SUPPLY BRANCH 1,OFFICE SHARED SERVICE WATER LOOP SUPPLY OUTLET BRANCH,OFFICE SHARED SERVICE WATER LOOP,Supply
     Plant Loop Connector Nodes,   1,Mixer,OFFICE SHARED SERVICE WATER LOOP SUPPLY MIXER,221GAL NATURALGAS WATER HEATER - 221KBTU/HR SUPPLY OUTLET WATER NODE,PIPE ADIABATIC 3 INLET WATER NODE,OFFICE SHARED SERVICE WATER LOOP,Supply
     Plant Loop Connector Branches,2,Mixer,OFFICE SHARED SERVICE WATER LOOP SUPPLY MIXER,OFFICE SHARED SERVICE WATER LOOP SUPPLY BRANCH 2,OFFICE SHARED SERVICE WATER LOOP SUPPLY OUTLET BRANCH,OFFICE SHARED SERVICE WATER LOOP,Supply
     Plant Loop Connector Nodes,   2,Mixer,OFFICE SHARED SERVICE WATER LOOP SUPPLY MIXER,PIPE ADIABATIC 1 OUTLET WATER NODE,PIPE ADIABATIC 3 INLET WATER NODE,OFFICE SHARED SERVICE WATER LOOP,Supply
 Plant Loop Supply Connection,OFFICE SHARED SERVICE WATER LOOP,OFFICE SHARED SERVICE WATER LOOP SUPPLY OUTLET NODE,OFFICE SHARED SERVICE WATER LOOP DEMAND INLET NODE
 Plant Loop Return Connection,OFFICE SHARED SERVICE WATER LOOP,OFFICE SHARED SERVICE WATER LOOP DEMAND OUTLET NODE,OFFICE SHARED SERVICE WATER LOOP SUPPLY INLET NODE
! ===============================================================
! <# Condenser Loops>,<Number of Condenser Loops>
 #Condenser Loops,0
! <Condenser Loop>,<Condenser Loop Name>,<Loop Type>,<Inlet Node Name>,<Outlet Node Name>,<Branch List>,<Connector List>
! <Condenser Loop Connector>,<Connector Type>,<Connector Name>,<Loop Name>,<Loop Type>,<Number of Inlets/Outlets>
! <Condenser Loop Connector Branches>,<Connector Node Count>,<Connector Type>,<Connector Name>,<Inlet Branch>,<Outlet Branch>,<Loop Name>,<Loop Type>
! <Condenser Loop Connector Nodes>,<Connector Node Count>,<Connector Type>,<Connector Name>,<Inlet Node>,<Outlet Node>,<Loop Name>,<Loop Type>
! <Condenser Loop Supply Connection>,<Condenser Loop Name>,<Supply Side Outlet Node Name>,<Demand Side Inlet Node Name>
! <Condenser Loop Return Connection>,<Condenser Loop Name>,<Demand Side Outlet Node Name>,<Supply Side Inlet Node Name>
! ===============================================================
! <# Controlled Zones>,<Number of Controlled Zones>
 #Controlled Zones,9
! <Controlled Zone>,<Controlled Zone Name>,<Equip List Name>,<Control List Name>,<Zone Node Name>,<# Inlet Nodes>,<# Exhaust Nodes>,<# Return Nodes>
! <Controlled Zone Inlet>,<Inlet Node Count>,<Controlled Zone Name>,<Supply Air Inlet Node Name>,<SD Sys:Cooling/Heating [DD:Cooling] Inlet Node Name>,<DD Sys:Heating Inlet Node Name>
! <Controlled Zone Exhaust>,<Exhaust Node Count>,<Controlled Zone Name>,<Exhaust Air Node Name>
 Controlled Zone,ZONE MEDIUMOFFICE WHOLEBUILDING - MD OFFICE A  - STORY GROUND,ZONE MEDIUMOFFICE WHOLEBUILDING - MD OFFICE A  - STORY GROUND EQUIPMENT LIST,,ZONE MEDIUMOFFICE WHOLEBUILDING - MD OFFICE A  - STORY GROUND ZONE AIR NODE,1,0,1
   Controlled Zone Inlet,1,ZONE MEDIUMOFFICE WHOLEBUILDING - MD OFFICE A  - STORY GROUND,ZONE MEDIUMOFFICE WHOLEBUILDING - MD OFFICE A  - STORY GROUND VAV TERMINAL OUTLET AIR NODE,ZONE MEDIUMOFFICE WHOLEBUILDING - MD OFFICE A  - STORY GROUND VAV TERMINAL INLET AIR NODE,N/A
   Controlled Zone Return,1,ZONE MEDIUMOFFICE WHOLEBUILDING - MD OFFICE A  - STORY GROUND,ZONE MEDIUMOFFICE WHOLEBUILDING - MD OFFICE A  - STORY GROUND RETURN AIR NODE
 Controlled Zone,ZONE MEDIUMOFFICE WHOLEBUILDING - MD OFFICE A END_A - STORY GROUND,ZONE MEDIUMOFFICE WHOLEBUILDING - MD OFFICE A END_A - STORY GROUND EQUIPMENT LIST,,ZONE MEDIUMOFFICE WHOLEBUILDING - MD OFFICE A END_A - STORY GROUND ZONE AIR NODE,1,0,1
   Controlled Zone Inlet,1,ZONE MEDIUMOFFICE WHOLEBUILDING - MD OFFICE A END_A - STORY GROUND,ZONE MEDIUMOFFICE WHOLEBUILDING - MD OFFICE A END_A - STORY GROUND VAV TERMINAL OUTLET AIR NODE,ZONE MEDIUMOFFICE WHOLEBUILDING - MD OFFICE A END_A - STORY GROUND VAV TERMINAL INLET AIR NODE,N/A
   Controlled Zone Return,1,ZONE MEDIUMOFFICE WHOLEBUILDING - MD OFFICE A END_A - STORY GROUND,ZONE MEDIUMOFFICE WHOLEBUILDING - MD OFFICE A END_A - STORY GROUND RETURN AIR NODE
 Controlled Zone,ZONE MEDIUMOFFICE WHOLEBUILDING - MD OFFICE A END_B - STORY GROUND,ZONE MEDIUMOFFICE WHOLEBUILDING - MD OFFICE A END_B - STORY GROUND EQUIPMENT LIST,,ZONE MEDIUMOFFICE WHOLEBUILDING - MD OFFICE A END_B - STORY GROUND ZONE AIR NODE,1,0,1
   Controlled Zone Inlet,1,ZONE MEDIUMOFFICE WHOLEBUILDING - MD OFFICE A END_B - STORY GROUND,ZONE MEDIUMOFFICE WHOLEBUILDING - MD OFFICE A END_B - STORY GROUND VAV TERMINAL OUTLET AIR NODE,ZONE MEDIUMOFFICE WHOLEBUILDING - MD OFFICE A END_B - STORY GROUND VAV TERMINAL INLET AIR NODE,N/A
   Controlled Zone Return,1,ZONE MEDIUMOFFICE WHOLEBUILDING - MD OFFICE A END_B - STORY GROUND,ZONE MEDIUMOFFICE WHOLEBUILDING - MD OFFICE A END_B - STORY GROUND RETURN AIR NODE
 Controlled Zone,ZONE MEDIUMOFFICE WHOLEBUILDING - MD OFFICE B  - STORY GROUND,ZONE MEDIUMOFFICE WHOLEBUILDING - MD OFFICE B  - STORY GROUND EQUIPMENT LIST,,ZONE MEDIUMOFFICE WHOLEBUILDING - MD OFFICE B  - STORY GROUND ZONE AIR NODE,1,0,1
   Controlled Zone Inlet,1,ZONE MEDIUMOFFICE WHOLEBUILDING - MD OFFICE B  - STORY GROUND,ZONE MEDIUMOFFICE WHOLEBUILDING - MD OFFICE B  - STORY GROUND VAV TERMINAL OUTLET AIR NODE,ZONE MEDIUMOFFICE WHOLEBUILDING - MD OFFICE B  - STORY GROUND VAV TERMINAL INLET AIR NODE,N/A
   Controlled Zone Return,1,ZONE MEDIUMOFFICE WHOLEBUILDING - MD OFFICE B  - STORY GROUND,ZONE MEDIUMOFFICE WHOLEBUILDING - MD OFFICE B  - STORY GROUND RETURN AIR NODE
 Controlled Zone,ZONE MEDIUMOFFICE WHOLEBUILDING - MD OFFICE B END_A - STORY GROUND,ZONE MEDIUMOFFICE WHOLEBUILDING - MD OFFICE B END_A - STORY GROUND EQUIPMENT LIST,,ZONE MEDIUMOFFICE WHOLEBUILDING - MD OFFICE B END_A - STORY GROUND ZONE AIR NODE,1,0,1
   Controlled Zone Inlet,1,ZONE MEDIUMOFFICE WHOLEBUILDING - MD OFFICE B END_A - STORY GROUND,ZONE MEDIUMOFFICE WHOLEBUILDING - MD OFFICE B END_A - STORY GROUND VAV TERMINAL OUTLET AIR NODE,ZONE MEDIUMOFFICE WHOLEBUILDING - MD OFFICE B END_A - STORY GROUND VAV TERMINAL INLET AIR NODE,N/A
   Controlled Zone Return,1,ZONE MEDIUMOFFICE WHOLEBUILDING - MD OFFICE B END_A - STORY GROUND,ZONE MEDIUMOFFICE WHOLEBUILDING - MD OFFICE B END_A - STORY GROUND RETURN AIR NODE
 Controlled Zone,ZONE MEDIUMOFFICE WHOLEBUILDING - MD OFFICE B END_B - STORY GROUND,ZONE MEDIUMOFFICE WHOLEBUILDING - MD OFFICE B END_B - STORY GROUND EQUIPMENT LIST,,ZONE MEDIUMOFFICE WHOLEBUILDING - MD OFFICE B END_B - STORY GROUND ZONE AIR NODE,1,0,1
   Controlled Zone Inlet,1,ZONE MEDIUMOFFICE WHOLEBUILDING - MD OFFICE B END_B - STORY GROUND,ZONE MEDIUMOFFICE WHOLEBUILDING - MD OFFICE B END_B - STORY GROUND VAV TERMINAL OUTLET AIR NODE,ZONE MEDIUMOFFICE WHOLEBUILDING - MD OFFICE B END_B - STORY GROUND VAV TERMINAL INLET AIR NODE,N/A
   Controlled Zone Return,1,ZONE MEDIUMOFFICE WHOLEBUILDING - MD OFFICE B END_B - STORY GROUND,ZONE MEDIUMOFFICE WHOLEBUILDING - MD OFFICE B END_B - STORY GROUND RETURN AIR NODE
 Controlled Zone,ZONE MEDIUMOFFICE WHOLEBUILDING - MD OFFICE C  - STORY GROUND,ZONE MEDIUMOFFICE WHOLEBUILDING - MD OFFICE C  - STORY GROUND EQUIPMENT LIST,,ZONE MEDIUMOFFICE WHOLEBUILDING - MD OFFICE C  - STORY GROUND ZONE AIR NODE,1,0,1
   Controlled Zone Inlet,1,ZONE MEDIUMOFFICE WHOLEBUILDING - MD OFFICE C  - STORY GROUND,ZONE MEDIUMOFFICE WHOLEBUILDING - MD OFFICE C  - STORY GROUND VAV TERMINAL OUTLET AIR NODE,ZONE MEDIUMOFFICE WHOLEBUILDING - MD OFFICE C  - STORY GROUND VAV TERMINAL INLET AIR NODE,N/A
   Controlled Zone Return,1,ZONE MEDIUMOFFICE WHOLEBUILDING - MD OFFICE C  - STORY GROUND,ZONE MEDIUMOFFICE WHOLEBUILDING - MD OFFICE C  - STORY GROUND RETURN AIR NODE
 Controlled Zone,ZONE MEDIUMOFFICE WHOLEBUILDING - MD OFFICE C END_A - STORY GROUND,ZONE MEDIUMOFFICE WHOLEBUILDING - MD OFFICE C END_A - STORY GROUND EQUIPMENT LIST,,ZONE MEDIUMOFFICE WHOLEBUILDING - MD OFFICE C END_A - STORY GROUND ZONE AIR NODE,1,0,1
   Controlled Zone Inlet,1,ZONE MEDIUMOFFICE WHOLEBUILDING - MD OFFICE C END_A - STORY GROUND,ZONE MEDIUMOFFICE WHOLEBUILDING - MD OFFICE C END_A - STORY GROUND VAV TERMINAL OUTLET AIR NODE,ZONE MEDIUMOFFICE WHOLEBUILDING - MD OFFICE C END_A - STORY GROUND VAV TERMINAL INLET AIR NODE,N/A
   Controlled Zone Return,1,ZONE MEDIUMOFFICE WHOLEBUILDING - MD OFFICE C END_A - STORY GROUND,ZONE MEDIUMOFFICE WHOLEBUILDING - MD OFFICE C END_A - STORY GROUND RETURN AIR NODE
 Controlled Zone,ZONE MEDIUMOFFICE WHOLEBUILDING - MD OFFICE C END_B - STORY GROUND,ZONE MEDIUMOFFICE WHOLEBUILDING - MD OFFICE C END_B - STORY GROUND EQUIPMENT LIST,,ZONE MEDIUMOFFICE WHOLEBUILDING - MD OFFICE C END_B - STORY GROUND ZONE AIR NODE,1,0,1
   Controlled Zone Inlet,1,ZONE MEDIUMOFFICE WHOLEBUILDING - MD OFFICE C END_B - STORY GROUND,ZONE MEDIUMOFFICE WHOLEBUILDING - MD OFFICE C END_B - STORY GROUND VAV TERMINAL OUTLET AIR NODE,ZONE MEDIUMOFFICE WHOLEBUILDING - MD OFFICE C END_B - STORY GROUND VAV TERMINAL INLET AIR NODE,N/A
   Controlled Zone Return,1,ZONE MEDIUMOFFICE WHOLEBUILDING - MD OFFICE C END_B - STORY GROUND,ZONE MEDIUMOFFICE WHOLEBUILDING - MD OFFICE C END_B - STORY GROUND RETURN AIR NODE
! ===============================================================
! <#Zone Equipment Lists>,<Number of Zone Equipment Lists>
 #Zone Equipment Lists,9
! <Zone Equipment List>,<Zone Equipment List Count>,<Zone Equipment List Name>,<Zone Name>,<Number of Components>
! <Zone Equipment Component>,<Component Count>,<Component Type>,<Component Name>,<Zone Name>,<Heating Priority>,<Cooling Priority>
 Zone Equipment List,1,ZONE MEDIUMOFFICE WHOLEBUILDING - MD OFFICE A  - STORY GROUND EQUIPMENT LIST,ZONE MEDIUMOFFICE WHOLEBUILDING - MD OFFICE A  - STORY GROUND,1
   Zone Equipment Component,1,ZONEHVAC:AIRDISTRIBUTIONUNIT,ADU ZONE MEDIUMOFFICE WHOLEBUILDING - MD OFFICE A  - STORY GROUND VAV TERMINAL,ZONE MEDIUMOFFICE WHOLEBUILDING - MD OFFICE A  - STORY GROUND,1,1
 Zone Equipment List,2,ZONE MEDIUMOFFICE WHOLEBUILDING - MD OFFICE A END_A - STORY GROUND EQUIPMENT LIST,ZONE MEDIUMOFFICE WHOLEBUILDING - MD OFFICE A END_A - STORY GROUND,1
   Zone Equipment Component,1,ZONEHVAC:AIRDISTRIBUTIONUNIT,ADU ZONE MEDIUMOFFICE WHOLEBUILDING - MD OFFICE A END_A - STORY GROUND VAV TERMINAL,ZONE MEDIUMOFFICE WHOLEBUILDING - MD OFFICE A END_A - STORY GROUND,1,1
 Zone Equipment List,3,ZONE MEDIUMOFFICE WHOLEBUILDING - MD OFFICE A END_B - STORY GROUND EQUIPMENT LIST,ZONE MEDIUMOFFICE WHOLEBUILDING - MD OFFICE A END_B - STORY GROUND,1
   Zone Equipment Component,1,ZONEHVAC:AIRDISTRIBUTIONUNIT,ADU ZONE MEDIUMOFFICE WHOLEBUILDING - MD OFFICE A END_B - STORY GROUND VAV TERMINAL,ZONE MEDIUMOFFICE WHOLEBUILDING - MD OFFICE A END_B - STORY GROUND,1,1
 Zone Equipment List,4,ZONE MEDIUMOFFICE WHOLEBUILDING - MD OFFICE B  - STORY GROUND EQUIPMENT LIST,ZONE MEDIUMOFFICE WHOLEBUILDING - MD OFFICE B  - STORY GROUND,1
   Zone Equipment Component,1,ZONEHVAC:AIRDISTRIBUTIONUNIT,ADU ZONE MEDIUMOFFICE WHOLEBUILDING - MD OFFICE B  - STORY GROUND VAV TERMINAL,ZONE MEDIUMOFFICE WHOLEBUILDING - MD OFFICE B  - STORY GROUND,1,1
 Zone Equipment List,5,ZONE MEDIUMOFFICE WHOLEBUILDING - MD OFFICE B END_A - STORY GROUND EQUIPMENT LIST,ZONE MEDIUMOFFICE WHOLEBUILDING - MD OFFICE B END_A - STORY GROUND,1
   Zone Equipment Component,1,ZONEHVAC:AIRDISTRIBUTIONUNIT,ADU ZONE MEDIUMOFFICE WHOLEBUILDING - MD OFFICE B END_A - STORY GROUND VAV TERMINAL,ZONE MEDIUMOFFICE WHOLEBUILDING - MD OFFICE B END_A - STORY GROUND,1,1
 Zone Equipment List,6,ZONE MEDIUMOFFICE WHOLEBUILDING - MD OFFICE B END_B - STORY GROUND EQUIPMENT LIST,ZONE MEDIUMOFFICE WHOLEBUILDING - MD OFFICE B END_B - STORY GROUND,1
   Zone Equipment Component,1,ZONEHVAC:AIRDISTRIBUTIONUNIT,ADU ZONE MEDIUMOFFICE WHOLEBUILDING - MD OFFICE B END_B - STORY GROUND VAV TERMINAL,ZONE MEDIUMOFFICE WHOLEBUILDING - MD OFFICE B END_B - STORY GROUND,1,1
 Zone Equipment List,7,ZONE MEDIUMOFFICE WHOLEBUILDING - MD OFFICE C  - STORY GROUND EQUIPMENT LIST,ZONE MEDIUMOFFICE WHOLEBUILDING - MD OFFICE C  - STORY GROUND,1
   Zone Equipment Component,1,ZONEHVAC:AIRDISTRIBUTIONUNIT,ADU ZONE MEDIUMOFFICE WHOLEBUILDING - MD OFFICE C  - STORY GROUND VAV TERMINAL,ZONE MEDIUMOFFICE WHOLEBUILDING - MD OFFICE C  - STORY GROUND,1,1
 Zone Equipment List,8,ZONE MEDIUMOFFICE WHOLEBUILDING - MD OFFICE C END_A - STORY GROUND EQUIPMENT LIST,ZONE MEDIUMOFFICE WHOLEBUILDING - MD OFFICE C END_A - STORY GROUND,1
   Zone Equipment Component,1,ZONEHVAC:AIRDISTRIBUTIONUNIT,ADU ZONE MEDIUMOFFICE WHOLEBUILDING - MD OFFICE C END_A - STORY GROUND VAV TERMINAL,ZONE MEDIUMOFFICE WHOLEBUILDING - MD OFFICE C END_A - STORY GROUND,1,1
 Zone Equipment List,9,ZONE MEDIUMOFFICE WHOLEBUILDING - MD OFFICE C END_B - STORY GROUND EQUIPMENT LIST,ZONE MEDIUMOFFICE WHOLEBUILDING - MD OFFICE C END_B - STORY GROUND,1
   Zone Equipment Component,1,ZONEHVAC:AIRDISTRIBUTIONUNIT,ADU ZONE MEDIUMOFFICE WHOLEBUILDING - MD OFFICE C END_B - STORY GROUND VAV TERMINAL,ZONE MEDIUMOFFICE WHOLEBUILDING - MD OFFICE C END_B - STORY GROUND,1,1
! ===============================================================
! <#AirLoopHVACs>,<Number of AirLoopHVACs>
 #AirLoopHVACs,1
! <AirLoopHVAC>,<Air Loop Name>,<# Return Nodes>,<# Supply Nodes>,<# Zones Cooled>,<# Zones Heated>,<Outdoor Air Used>
! <AirLoop Return Connections>,<Connection Count>,<AirLoopHVAC Name>,<Zn Eqp Return Node #>,<Zn Eqp Return Node Name>,<AirLoop Return Node #>,<Air Loop Return Node Name>
! <AirLoop Supply Connections>,<Connection Count>,<AirLoopHVAC Name>,<Zn Eqp Supply Node #>,<Zn Eqp Supply Node Name>,<AirLoop Supply Node #>,<Air Loop Supply Node Name>
! <Cooled Zone Info>,<Cooled Zone Count>,<Cooled Zone Name>,<Cooled Zone Inlet Node #>,<Cooled Zone Inlet Node Name>,<AirLoopHVAC Name>
! <Heated Zone Info>,<Heated Zone Count>,<Heated Zone Name>,<Heated Zone Inlet Node #>,<Heated Zone Inlet Node Name>,<AirLoopHVAC Name>
! <Outdoor Air Connections>,<OA Inlet Node #>,<OA Return Air Inlet Node Name>,<OA Outlet Node #>,<OA Mixed Air Outlet Node Name>,<AirLoopHVAC Name>
! <AirLoopHVAC Connector>,<Connector Type>,<Connector Name>,<Loop Name>,<Loop Type>,<Number of Inlets/Outlets>
! <AirLoopHVAC Connector Branches>,<Connector Node Count>,<Connector Type>,<Connector Name>,<Inlet Branch>,<Outlet Branch>,<Loop Name>,<Loop Type>
! <AirLoopHVAC Connector Nodes>,<Connector Node Count>,<Connector Type>,<Connector Name>,<Inlet Node>,<Outlet Node>,<Loop Name>,<Loop Type>
 AirLoopHVAC,9 ZONE PVAV,1,1,9,0,Yes
   AirLoop Return Connections,1,9 ZONE PVAV,88,9 ZONE PVAV DEMAND OUTLET NODE,21,9 ZONE PVAV SUPPLY INLET NODE
   AirLoop Supply Connections,1,9 ZONE PVAV,20,9 ZONE PVAV DEMAND INLET NODE,19,9 ZONE PVAV SUPPLY OUTLET NODE
   Cooled Zone Info,1,ZONE MEDIUMOFFICE WHOLEBUILDING - MD OFFICE C  - STORY GROUND,13,ZONE MEDIUMOFFICE WHOLEBUILDING - MD OFFICE C  - STORY GROUND VAV TERMINAL OUTLET AIR NODE,9 ZONE PVAV
   Cooled Zone Info,2,ZONE MEDIUMOFFICE WHOLEBUILDING - MD OFFICE B END_B - STORY GROUND,11,ZONE MEDIUMOFFICE WHOLEBUILDING - MD OFFICE B END_B - STORY GROUND VAV TERMINAL OUTLET AIR NODE,9 ZONE PVAV
   Cooled Zone Info,3,ZONE MEDIUMOFFICE WHOLEBUILDING - MD OFFICE A  - STORY GROUND,1,ZONE MEDIUMOFFICE WHOLEBUILDING - MD OFFICE A  - STORY GROUND VAV TERMINAL OUTLET AIR NODE,9 ZONE PVAV
   Cooled Zone Info,4,ZONE MEDIUMOFFICE WHOLEBUILDING - MD OFFICE C END_A - STORY GROUND,15,ZONE MEDIUMOFFICE WHOLEBUILDING - MD OFFICE C END_A - STORY GROUND VAV TERMINAL OUTLET AIR NODE,9 ZONE PVAV
   Cooled Zone Info,5,ZONE MEDIUMOFFICE WHOLEBUILDING - MD OFFICE A END_B - STORY GROUND,5,ZONE MEDIUMOFFICE WHOLEBUILDING - MD OFFICE A END_B - STORY GROUND VAV TERMINAL OUTLET AIR NODE,9 ZONE PVAV
   Cooled Zone Info,6,ZONE MEDIUMOFFICE WHOLEBUILDING - MD OFFICE B END_A - STORY GROUND,9,ZONE MEDIUMOFFICE WHOLEBUILDING - MD OFFICE B END_A - STORY GROUND VAV TERMINAL OUTLET AIR NODE,9 ZONE PVAV
   Cooled Zone Info,7,ZONE MEDIUMOFFICE WHOLEBUILDING - MD OFFICE C END_B - STORY GROUND,17,ZONE MEDIUMOFFICE WHOLEBUILDING - MD OFFICE C END_B - STORY GROUND VAV TERMINAL OUTLET AIR NODE,9 ZONE PVAV
   Cooled Zone Info,8,ZONE MEDIUMOFFICE WHOLEBUILDING - MD OFFICE B  - STORY GROUND,7,ZONE MEDIUMOFFICE WHOLEBUILDING - MD OFFICE B  - STORY GROUND VAV TERMINAL OUTLET AIR NODE,9 ZONE PVAV
   Cooled Zone Info,9,ZONE MEDIUMOFFICE WHOLEBUILDING - MD OFFICE A END_A - STORY GROUND,3,ZONE MEDIUMOFFICE WHOLEBUILDING - MD OFFICE A END_A - STORY GROUND VAV TERMINAL OUTLET AIR NODE,9 ZONE PVAV
   Outdoor Air Connections,21,9 ZONE PVAV SUPPLY INLET NODE,22,9 ZONE PVAV MIXED AIR NODE,9 ZONE PVAV
! ===============================================================
! <#Parent Node Connections>,<Number of Parent Node Connections>
 #Parent Node Connections,96
! <Parent Node Connection>,<Node Name>,<Node ObjectType>,<Node ObjectName>,<Node ConnectionType>,<Node FluidStream>
 Parent Node Connection,9 ZONE PVAV SUPPLY INLET NODE,BRANCH,9 ZONE PVAV MAIN BRANCH,Inlet,1
 Parent Node Connection,9 ZONE PVAV MIXED AIR NODE,BRANCH,9 ZONE PVAV MAIN BRANCH,Internal,1
 Parent Node Connection,9 ZONE PVAV 2SPD DX CLG COIL OUTLET AIR NODE,BRANCH,9 ZONE PVAV MAIN BRANCH,Internal,1
 Parent Node Connection,9 ZONE PVAV MAIN HTG COIL OUTLET AIR NODE,BRANCH,9 ZONE PVAV MAIN BRANCH,Internal,1
 Parent Node Connection,9 ZONE PVAV SUPPLY OUTLET NODE,BRANCH,9 ZONE PVAV MAIN BRANCH,Outlet,1
 Parent Node Connection,HOT WATER LOOP SUPPLY INLET NODE,BRANCH,HOT WATER LOOP SUPPLY INLET BRANCH,Inlet,1
 Parent Node Connection,HOT WATER LOOP PUMP OUTLET WATER NODE,BRANCH,HOT WATER LOOP SUPPLY INLET BRANCH,Outlet,1
 Parent Node Connection,BOILER INLET WATER NODE,BRANCH,HOT WATER LOOP SUPPLY BRANCH 1,Inlet,1
 Parent Node Connection,BOILER OUTLET WATER NODE,BRANCH,HOT WATER LOOP SUPPLY BRANCH 1,Outlet,1
 Parent Node Connection,HOT WATER LOOP SUPPLY EQUIPMENT BYPASS INLET WATER NODE,BRANCH,HOT WATER LOOP SUPPLY BRANCH 2,Inlet,1
 Parent Node Connection,HOT WATER LOOP SUPPLY EQUIPMENT BYPASS OUTLET WATER NODE,BRANCH,HOT WATER LOOP SUPPLY BRANCH 2,Outlet,1
 Parent Node Connection,HOT WATER LOOP SUPPLY OUTLET INLET WATER NODE,BRANCH,HOT WATER LOOP SUPPLY OUTLET BRANCH,Inlet,1
 Parent Node Connection,HOT WATER LOOP SUPPLY OUTLET NODE,BRANCH,HOT WATER LOOP SUPPLY OUTLET BRANCH,Outlet,1
 Parent Node Connection,HOT WATER LOOP DEMAND INLET NODE,BRANCH,HOT WATER LOOP DEMAND INLET BRANCH,Inlet,1
 Parent Node Connection,HOT WATER LOOP DEMAND INLET OUTLET WATER NODE,BRANCH,HOT WATER LOOP DEMAND INLET BRANCH,Outlet,1
 Parent Node Connection,HOT WATER LOOP COIL BYPASS INLET WATER NODE,BRANCH,HOT WATER LOOP DEMAND BRANCH 1,Inlet,1
 Parent Node Connection,HOT WATER LOOP COIL BYPASS OUTLET WATER NODE,BRANCH,HOT WATER LOOP DEMAND BRANCH 1,Outlet,1
 Parent Node Connection,9 ZONE PVAV MAIN HTG COIL INLET WATER NODE,BRANCH,HOT WATER LOOP DEMAND BRANCH 2,Inlet,1
 Parent Node Connection,9 ZONE PVAV MAIN HTG COIL OUTLET WATER NODE,BRANCH,HOT WATER LOOP DEMAND BRANCH 2,Outlet,1
 Parent Node Connection,ZONE MEDIUMOFFICE WHOLEBUILDING - MD OFFICE C  - STORY GROUND REHEAT COIL INLET WATER NODE,BRANCH,HOT WATER LOOP DEMAND BRANCH 3,Inlet,1
 Parent Node Connection,ZONE MEDIUMOFFICE WHOLEBUILDING - MD OFFICE C  - STORY GROUND REHEAT COIL OUTLET WATER NODE,BRANCH,HOT WATER LOOP DEMAND BRANCH 3,Outlet,1
[...]
 Non-Parent Node Connection,MEDIUMOFFICE WHOLEBUILDING - MD OFFICE - 90.1-2007 WUC 6.14GPM AT 140F OUTLET WATER NODE,CONNECTOR:MIXER,OFFICE SHARED SERVICE WATER LOOP DEMAND MIXER,Inlet,1
 Non-Parent Node Connection,OFFICE SHARED SERVICE WATER LOOP DEMAND BYPASS PIPE OUTLET NODE,CONNECTOR:MIXER,OFFICE SHARED SERVICE WATER LOOP DEMAND MIXER,Inlet,1
 Non-Parent Node Connection,OFFICE SHARED SERVICE WATER LOOP CIRCULATOR PUMP OUTLET WATER NODE,CONNECTOR:SPLITTER,OFFICE SHARED SERVICE WATER LOOP SUPPLY SPLITTER,Inlet,1
 Non-Parent Node Connection,221GAL NATURALGAS WATER HEATER - 221KBTU/HR SUPPLY INLET WATER NODE,CONNECTOR:SPLITTER,OFFICE SHARED SERVICE WATER LOOP SUPPLY SPLITTER,Outlet,1
 Non-Parent Node Connection,PIPE ADIABATIC 1 INLET WATER NODE,CONNECTOR:SPLITTER,OFFICE SHARED SERVICE WATER LOOP SUPPLY SPLITTER,Outlet,1
 Non-Parent Node Connection,PIPE ADIABATIC 3 INLET WATER NODE,CONNECTOR:MIXER,OFFICE SHARED SERVICE WATER LOOP SUPPLY MIXER,Outlet,1
 Non-Parent Node Connection,221GAL NATURALGAS WATER HEATER - 221KBTU/HR SUPPLY OUTLET WATER NODE,CONNECTOR:MIXER,OFFICE SHARED SERVICE WATER LOOP SUPPLY MIXER,Inlet,1
 Non-Parent Node Connection,PIPE ADIABATIC 1 OUTLET WATER NODE,CONNECTOR:MIXER,OFFICE SHARED SERVICE WATER LOOP SUPPLY MIXER,Inlet,1
 Non-Parent Node Connection,9 ZONE PVAV DEMAND INLET NODE,AIRLOOPHVAC:ZONESPLITTER,AIR LOOP HVAC ZONE SPLITTER 1,Inlet,1
 Non-Parent Node Connection,ZONE MEDIUMOFFICE WHOLEBUILDING - MD OFFICE C  - STORY GROUND VAV TERMINAL INLET AIR NODE,AIRLOOPHVAC:ZONESPLITTER,AIR LOOP HVAC ZONE SPLITTER 1,Outlet,1
 Non-Parent Node Connection,ZONE MEDIUMOFFICE WHOLEBUILDING - MD OFFICE B END_B - STORY GROUND VAV TERMINAL INLET AIR NODE,AIRLOOPHVAC:ZONESPLITTER,AIR LOOP HVAC ZONE SPLITTER 1,Outlet,1
 Non-Parent Node Connection,ZONE MEDIUMOFFICE WHOLEBUILDING - MD OFFICE A  - STORY GROUND VAV TERMINAL INLET AIR NODE,AIRLOOPHVAC:ZONESPLITTER,AIR LOOP HVAC ZONE SPLITTER 1,Outlet,1
 Non-Parent Node Connection,ZONE MEDIUMOFFICE WHOLEBUILDING - MD OFFICE C END_A - STORY GROUND VAV TERMINAL INLET AIR NODE,AIRLOOPHVAC:ZONESPLITTER,AIR LOOP HVAC ZONE SPLITTER 1,Outlet,1
 Non-Parent Node Connection,ZONE MEDIUMOFFICE WHOLEBUILDING - MD OFFICE A END_B - STORY GROUND VAV TERMINAL INLET AIR NODE,AIRLOOPHVAC:ZONESPLITTER,AIR LOOP HVAC ZONE SPLITTER 1,Outlet,1
 Non-Parent Node Connection,ZONE MEDIUMOFFICE WHOLEBUILDING - MD OFFICE B END_A - STORY GROUND VAV TERMINAL INLET AIR NODE,AIRLOOPHVAC:ZONESPLITTER,AIR LOOP HVAC ZONE SPLITTER 1,Outlet,1
 Non-Parent Node Connection,ZONE MEDIUMOFFICE WHOLEBUILDING - MD OFFICE C END_B - STORY GROUND VAV TERMINAL INLET AIR NODE,AIRLOOPHVAC:ZONESPLITTER,AIR LOOP HVAC ZONE SPLITTER 1,Outlet,1
 Non-Parent Node Connection,ZONE MEDIUMOFFICE WHOLEBUILDING - MD OFFICE B  - STORY GROUND VAV TERMINAL INLET AIR NODE,AIRLOOPHVAC:ZONESPLITTER,AIR LOOP HVAC ZONE SPLITTER 1,Outlet,1
 Non-Parent Node Connection,ZONE MEDIUMOFFICE WHOLEBUILDING - MD OFFICE A END_A - STORY GROUND VAV TERMINAL INLET AIR NODE,AIRLOOPHVAC:ZONESPLITTER,AIR LOOP HVAC ZONE SPLITTER 1,Outlet,1
 Non-Parent Node Connection,ZONE MEDIUMOFFICE WHOLEBUILDING - MD OFFICE A  - STORY GROUND VAV TERMINAL DAMPER OUTLET,AIRTERMINAL:SINGLEDUCT:VAV:REHEAT,ZONE MEDIUMOFFICE WHOLEBUILDING - MD OFFICE A  - STORY GROUND VAV TERMINAL,Outlet,1
 Non-Parent Node Connection,ZONE MEDIUMOFFICE WHOLEBUILDING - MD OFFICE A  - STORY GROUND VAV TERMINAL INLET AIR NODE,AIRTERMINAL:SINGLEDUCT:VAV:REHEAT,ZONE MEDIUMOFFICE WHOLEBUILDING - MD OFFICE A  - STORY GROUND VAV TERMINAL,Inlet,1
 Non-Parent Node Connection,ZONE MEDIUMOFFICE WHOLEBUILDING - MD OFFICE A  - STORY GROUND REHEAT COIL INLET WATER NODE,COIL:HEATING:WATER,ZONE MEDIUMOFFICE WHOLEBUILDING - MD OFFICE A  - STORY GROUND REHEAT COIL,Inlet,2
 Non-Parent Node Connection,ZONE MEDIUMOFFICE WHOLEBUILDING - MD OFFICE A  - STORY GROUND REHEAT COIL OUTLET WATER NODE,COIL:HEATING:WATER,ZONE MEDIUMOFFICE WHOLEBUILDING - MD OFFICE A  - STORY GROUND REHEAT COIL,Outlet,2
 Non-Parent Node Connection,ZONE MEDIUMOFFICE WHOLEBUILDING - MD OFFICE A  - STORY GROUND VAV TERMINAL DAMPER OUTLET,COIL:HEATING:WATER,ZONE MEDIUMOFFICE WHOLEBUILDING - MD OFFICE A  - STORY GROUND REHEAT COIL,Inlet,1
 Non-Parent Node Connection,ZONE MEDIUMOFFICE WHOLEBUILDING - MD OFFICE A  - STORY GROUND VAV TERMINAL OUTLET AIR NODE,COIL:HEATING:WATER,ZONE MEDIUMOFFICE WHOLEBUILDING - MD OFFICE A  - STORY GROUND REHEAT COIL,Outlet,1
 Non-Parent Node Connection,ZONE MEDIUMOFFICE WHOLEBUILDING - MD OFFICE A END_A - STORY GROUND REHEAT COIL INLET WATER NODE,COIL:HEATING:WATER,ZONE MEDIUMOFFICE WHOLEBUILDING - MD OFFICE A END_A - STORY GROUND REHEAT COIL,Inlet,2
 Non-Parent Node Connection,ZONE MEDIUMOFFICE WHOLEBUILDING - MD OFFICE A END_A - STORY GROUND REHEAT COIL OUTLET WATER NODE,COIL:HEATING:WATER,ZONE MEDIUMOFFICE WHOLEBUILDING - MD OFFICE A END_A - STORY GROUND REHEAT COIL,Outlet,2
 Non-Parent Node Connection,ZONE MEDIUMOFFICE WHOLEBUILDING - MD OFFICE A END_A - STORY GROUND VAV TERMINAL DAMPER OUTLET,COIL:HEATING:WATER,ZONE MEDIUMOFFICE WHOLEBUILDING - MD OFFICE A END_A - STORY GROUND REHEAT COIL,Inlet,1
 Non-Parent Node Connection,ZONE MEDIUMOFFICE WHOLEBUILDING - MD OFFICE A END_A - STORY GROUND VAV TERMINAL OUTLET AIR NODE,COIL:HEATING:WATER,ZONE MEDIUMOFFICE WHOLEBUILDING - MD OFFICE A END_A - STORY GROUND REHEAT COIL,Outlet,1
 Non-Parent Node Connection,ZONE MEDIUMOFFICE WHOLEBUILDING - MD OFFICE A END_B - STORY GROUND REHEAT COIL INLET WATER NODE,COIL:HEATING:WATER,ZONE MEDIUMOFFICE WHOLEBUILDING - MD OFFICE A END_B - STORY GROUND REHEAT COIL,Inlet,2
 Non-Parent Node Connection,ZONE MEDIUMOFFICE WHOLEBUILDING - MD OFFICE A END_B - STORY GROUND REHEAT COIL OUTLET WATER NODE,COIL:HEATING:WATER,ZONE MEDIUMOFFICE WHOLEBUILDING - MD OFFICE A END_B - STORY GROUND REHEAT COIL,Outlet,2
 Non-Parent Node Connection,ZONE MEDIUMOFFICE WHOLEBUILDING - MD OFFICE A END_B - STORY GROUND VAV TERMINAL DAMPER OUTLET,COIL:HEATING:WATER,ZONE MEDIUMOFFICE WHOLEBUILDING - MD OFFICE A END_B - STORY GROUND REHEAT COIL,Inlet,1
 Non-Parent Node Connection,ZONE MEDIUMOFFICE WHOLEBUILDING - MD OFFICE A END_B - STORY GROUND VAV TERMINAL OUTLET AIR NODE,COIL:HEATING:WATER,ZONE MEDIUMOFFICE WHOLEBUILDING - MD OFFICE A END_B - STORY GROUND REHEAT COIL,Outlet,1
 Non-Parent Node Connection,ZONE MEDIUMOFFICE WHOLEBUILDING - MD OFFICE B  - STORY GROUND REHEAT COIL INLET WATER NODE,COIL:HEATING:WATER,ZONE MEDIUMOFFICE WHOLEBUILDING - MD OFFICE B  - STORY GROUND REHEAT COIL,Inlet,2
 Non-Parent Node Connection,ZONE MEDIUMOFFICE WHOLEBUILDING - MD OFFICE B  - STORY GROUND REHEAT COIL OUTLET WATER NODE,COIL:HEATING:WATER,ZONE MEDIUMOFFICE WHOLEBUILDING - MD OFFICE B  - STORY GROUND REHEAT COIL,Outlet,2
 Non-Parent Node Connection,ZONE MEDIUMOFFICE WHOLEBUILDING - MD OFFICE B  - STORY GROUND VAV TERMINAL DAMPER OUTLET,COIL:HEATING:WATER,ZONE MEDIUMOFFICE WHOLEBUILDING - MD OFFICE B  - STORY GROUND REHEAT COIL,Inlet,1
 Non-Parent Node Connection,ZONE MEDIUMOFFICE WHOLEBUILDING - MD OFFICE B  - STORY GROUND VAV TERMINAL OUTLET AIR NODE,COIL:HEATING:WATER,ZONE MEDIUMOFFICE WHOLEBUILDING - MD OFFICE B  - STORY GROUND REHEAT COIL,Outlet,1
 Non-Parent Node Connection,ZONE MEDIUMOFFICE WHOLEBUILDING - MD OFFICE B END_A - STORY GROUND REHEAT COIL INLET WATER NODE,COIL:HEATING:WATER,ZONE MEDIUMOFFICE WHOLEBUILDING - MD OFFICE B END_A - STORY GROUND REHEAT COIL,Inlet,2
 Non-Parent Node Connection,ZONE MEDIUMOFFICE WHOLEBUILDING - MD OFFICE B END_A - STORY GROUND REHEAT COIL OUTLET WATER NODE,COIL:HEATING:WATER,ZONE MEDIUMOFFICE WHOLEBUILDING - MD OFFICE B END_A - STORY GROUND REHEAT COIL,Outlet,2
 Non-Parent Node Connection,ZONE MEDIUMOFFICE WHOLEBUILDING - MD OFFICE B END_A - STORY GROUND VAV TERMINAL DAMPER OUTLET,COIL:HEATING:WATER,ZONE MEDIUMOFFICE WHOLEBUILDING - MD OFFICE B END_A - STORY GROUND REHEAT COIL,Inlet,1
 Non-Parent Node Connection,ZONE MEDIUMOFFICE WHOLEBUILDING - MD OFFICE B END_A - STORY GROUND VAV TERMINAL OUTLET AIR NODE,COIL:HEATING:WATER,ZONE MEDIUMOFFICE WHOLEBUILDING - MD OFFICE B END_A - STORY GROUND REHEAT COIL,Outlet,1
 Non-Parent Node Connection,ZONE MEDIUMOFFICE WHOLEBUILDING - MD OFFICE B END_B - STORY GROUND REHEAT COIL INLET WATER NODE,COIL:HEATING:WATER,ZONE MEDIUMOFFICE WHOLEBUILDING - MD OFFICE B END_B - STORY GROUND REHEAT COIL,Inlet,2
 Non-Parent Node Connection,ZONE MEDIUMOFFICE WHOLEBUILDING - MD OFFICE B END_B - STORY GROUND REHEAT COIL OUTLET WATER NODE,COIL:HEATING:WATER,ZONE MEDIUMOFFICE WHOLEBUILDING - MD OFFICE B END_B - STORY GROUND REHEAT COIL,Outlet,2
 Non-Parent Node Connection,ZONE MEDIUMOFFICE WHOLEBUILDING - MD OFFICE B END_B - STORY GROUND VAV TERMINAL DAMPER OUTLET,COIL:HEATING:WATER,ZONE MEDIUMOFFICE WHOLEBUILDING - MD OFFICE B END_B - STORY GROUND REHEAT COIL,Inlet,1
 Non-Parent Node Connection,ZONE MEDIUMOFFICE WHOLEBUILDING - MD OFFICE B END_B - STORY GROUND VAV TERMINAL OUTLET AIR NODE,COIL:HEATING:WATER,ZONE MEDIUMOFFICE WHOLEBUILDING - MD OFFICE B END_B - STORY GROUND REHEAT COIL,Outlet,1
 Non-Parent Node Connection,ZONE MEDIUMOFFICE WHOLEBUILDING - MD OFFICE C  - STORY GROUND REHEAT COIL INLET WATER NODE,COIL:HEATING:WATER,ZONE MEDIUMOFFICE WHOLEBUILDING - MD OFFICE C  - STORY GROUND REHEAT COIL,Inlet,2
 Non-Parent Node Connection,ZONE MEDIUMOFFICE WHOLEBUILDING - MD OFFICE C  - STORY GROUND REHEAT COIL OUTLET WATER NODE,COIL:HEATING:WATER,ZONE MEDIUMOFFICE WHOLEBUILDING - MD OFFICE C  - STORY GROUND REHEAT COIL,Outlet,2
 Non-Parent Node Connection,ZONE MEDIUMOFFICE WHOLEBUILDING - MD OFFICE C  - STORY GROUND VAV TERMINAL DAMPER OUTLET,COIL:HEATING:WATER,ZONE MEDIUMOFFICE WHOLEBUILDING - MD OFFICE C  - STORY GROUND REHEAT COIL,Inlet,1
 Non-Parent Node Connection,ZONE MEDIUMOFFICE WHOLEBUILDING - MD OFFICE C  - STORY GROUND VAV TERMINAL OUTLET AIR NODE,COIL:HEATING:WATER,ZONE MEDIUMOFFICE WHOLEBUILDING - MD OFFICE C  - STORY GROUND REHEAT COIL,Outlet,1
 Non-Parent Node Connection,ZONE MEDIUMOFFICE WHOLEBUILDING - MD OFFICE C END_A - STORY GROUND REHEAT COIL INLET WATER NODE,COIL:HEATING:WATER,ZONE MEDIUMOFFICE WHOLEBUILDING - MD OFFICE C END_A - STORY GROUND REHEAT COIL,Inlet,2
 Non-Parent Node Connection,ZONE MEDIUMOFFICE WHOLEBUILDING - MD OFFICE C END_A - STORY GROUND REHEAT COIL OUTLET WATER NODE,COIL:HEATING:WATER,ZONE MEDIUMOFFICE WHOLEBUILDING - MD OFFICE C END_A - STORY GROUND REHEAT COIL,Outlet,2
 Non-Parent Node Connection,ZONE MEDIUMOFFICE WHOLEBUILDING - MD OFFICE C END_A - STORY GROUND VAV TERMINAL DAMPER OUTLET,COIL:HEATING:WATER,ZONE MEDIUMOFFICE WHOLEBUILDING - MD OFFICE C END_A - STORY GROUND REHEAT COIL,Inlet,1
 Non-Parent Node Connection,ZONE MEDIUMOFFICE WHOLEBUILDING - MD OFFICE C END_A - STORY GROUND VAV TERMINAL OUTLET AIR NODE,COIL:HEATING:WATER,ZONE MEDIUMOFFICE WHOLEBUILDING - MD OFFICE C END_A - STORY GROUND REHEAT COIL,Outlet,1
 Non-Parent Node Connection,ZONE MEDIUMOFFICE WHOLEBUILDING - MD OFFICE C END_B - STORY GROUND REHEAT COIL INLET WATER NODE,COIL:HEATING:WATER,ZONE MEDIUMOFFICE WHOLEBUILDING - MD OFFICE C END_B - STORY GROUND REHEAT COIL,Inlet,2
 Non-Parent Node Connection,ZONE MEDIUMOFFICE WHOLEBUILDING - MD OFFICE C END_B - STORY GROUND REHEAT COIL OUTLET WATER NODE,COIL:HEATING:WATER,ZONE MEDIUMOFFICE WHOLEBUILDING - MD OFFICE C END_B - STORY GROUND REHEAT COIL,Outlet,2
 Non-Parent Node Connection,ZONE MEDIUMOFFICE WHOLEBUILDING - MD OFFICE C END_B - STORY GROUND VAV TERMINAL DAMPER OUTLET,COIL:HEATING:WATER,ZONE MEDIUMOFFICE WHOLEBUILDING - MD OFFICE C END_B - STORY GROUND REHEAT COIL,Inlet,1
 Non-Parent Node Connection,ZONE MEDIUMOFFICE WHOLEBUILDING - MD OFFICE C END_B - STORY GROUND VAV TERMINAL OUTLET AIR NODE,COIL:HEATING:WATER,ZONE MEDIUMOFFICE WHOLEBUILDING - MD OFFICE C END_B - STORY GROUND REHEAT COIL,Outlet,1
 Non-Parent Node Connection,9 ZONE PVAV MAIN HTG COIL INLET WATER NODE,COIL:HEATING:WATER,9 ZONE PVAV MAIN HTG COIL,Inlet,2
 Non-Parent Node Connection,9 ZONE PVAV MAIN HTG COIL OUTLET WATER NODE,COIL:HEATING:WATER,9 ZONE PVAV MAIN HTG COIL,Outlet,2
 Non-Parent Node Connection,9 ZONE PVAV 2SPD DX CLG COIL OUTLET AIR NODE,COIL:HEATING:WATER,9 ZONE PVAV MAIN HTG COIL,Inlet,1
 Non-Parent Node Connection,9 ZONE PVAV MAIN HTG COIL OUTLET AIR NODE,COIL:HEATING:WATER,9 ZONE PVAV MAIN HTG COIL,Outlet,1
 Non-Parent Node Connection,ZONE MEDIUMOFFICE WHOLEBUILDING - MD OFFICE A END_A - STORY GROUND VAV TERMINAL DAMPER OUTLET,AIRTERMINAL:SINGLEDUCT:VAV:REHEAT,ZONE MEDIUMOFFICE WHOLEBUILDING - MD OFFICE A END_A - STORY GROUND VAV TERMINAL,Outlet,1
 Non-Parent Node Connection,ZONE MEDIUMOFFICE WHOLEBUILDING - MD OFFICE A END_A - STORY GROUND VAV TERMINAL INLET AIR NODE,AIRTERMINAL:SINGLEDUCT:VAV:REHEAT,ZONE MEDIUMOFFICE WHOLEBUILDING - MD OFFICE A END_A - STORY GROUND VAV TERMINAL,Inlet,1
 Non-Parent Node Connection,ZONE MEDIUMOFFICE WHOLEBUILDING - MD OFFICE A END_B - STORY GROUND VAV TERMINAL DAMPER OUTLET,AIRTERMINAL:SINGLEDUCT:VAV:REHEAT,ZONE MEDIUMOFFICE WHOLEBUILDING - MD OFFICE A END_B - STORY GROUND VAV TERMINAL,Outlet,1
 Non-Parent Node Connection,ZONE MEDIUMOFFICE WHOLEBUILDING - MD OFFICE A END_B - STORY GROUND VAV TERMINAL INLET AIR NODE,AIRTERMINAL:SINGLEDUCT:VAV:REHEAT,ZONE MEDIUMOFFICE WHOLEBUILDING - MD OFFICE A END_B - STORY GROUND VAV TERMINAL,Inlet,1
 Non-Parent Node Connection,ZONE MEDIUMOFFICE WHOLEBUILDING - MD OFFICE B  - STORY GROUND VAV TERMINAL DAMPER OUTLET,AIRTERMINAL:SINGLEDUCT:VAV:REHEAT,ZONE MEDIUMOFFICE WHOLEBUILDING - MD OFFICE B  - STORY GROUND VAV TERMINAL,Outlet,1
 Non-Parent Node Connection,ZONE MEDIUMOFFICE WHOLEBUILDING - MD OFFICE B  - STORY GROUND VAV TERMINAL INLET AIR NODE,AIRTERMINAL:SINGLEDUCT:VAV:REHEAT,ZONE MEDIUMOFFICE WHOLEBUILDING - MD OFFICE B  - STORY GROUND VAV TERMINAL,Inlet,1
 Non-Parent Node Connection,ZONE MEDIUMOFFICE WHOLEBUILDING - MD OFFICE B END_A - STORY GROUND VAV TERMINAL DAMPER OUTLET,AIRTERMINAL:SINGLEDUCT:VAV:REHEAT,ZONE MEDIUMOFFICE WHOLEBUILDING - MD OFFICE B END_A - STORY GROUND VAV TERMINAL,Outlet,1
 Non-Parent Node Connection,ZONE MEDIUMOFFICE WHOLEBUILDING - MD OFFICE B END_A - STORY GROUND VAV TERMINAL INLET AIR NODE,AIRTERMINAL:SINGLEDUCT:VAV:REHEAT,ZONE MEDIUMOFFICE WHOLEBUILDING - MD OFFICE B END_A - STORY GROUND VAV TERMINAL,Inlet,1
 Non-Parent Node Connection,ZONE MEDIUMOFFICE WHOLEBUILDING - MD OFFICE B END_B - STORY GROUND VAV TERMINAL DAMPER OUTLET,AIRTERMINAL:SINGLEDUCT:VAV:REHEAT,ZONE MEDIUMOFFICE WHOLEBUILDING - MD OFFICE B END_B - STORY GROUND VAV TERMINAL,Outlet,1
 Non-Parent Node Connection,ZONE MEDIUMOFFICE WHOLEBUILDING - MD OFFICE B END_B - STORY GROUND VAV TERMINAL INLET AIR NODE,AIRTERMINAL:SINGLEDUCT:VAV:REHEAT,ZONE MEDIUMOFFICE WHOLEBUILDING - MD OFFICE B END_B - STORY GROUND VAV TERMINAL,Inlet,1
 Non-Parent Node Connection,ZONE MEDIUMOFFICE WHOLEBUILDING - MD OFFICE C  - STORY GROUND VAV TERMINAL DAMPER OUTLET,AIRTERMINAL:SINGLEDUCT:VAV:REHEAT,ZONE MEDIUMOFFICE WHOLEBUILDING - MD OFFICE C  - STORY GROUND VAV TERMINAL,Outlet,1
 Non-Parent Node Connection,ZONE MEDIUMOFFICE WHOLEBUILDING - MD OFFICE C  - STORY GROUND VAV TERMINAL INLET AIR NODE,AIRTERMINAL:SINGLEDUCT:VAV:REHEAT,ZONE MEDIUMOFFICE WHOLEBUILDING - MD OFFICE C  - STORY GROUND VAV TERMINAL,Inlet,1
 Non-Parent Node Connection,ZONE MEDIUMOFFICE WHOLEBUILDING - MD OFFICE C END_A - STORY GROUND VAV TERMINAL DAMPER OUTLET,AIRTERMINAL:SINGLEDUCT:VAV:REHEAT,ZONE MEDIUMOFFICE WHOLEBUILDING - MD OFFICE C END_A - STORY GROUND VAV TERMINAL,Outlet,1
 Non-Parent Node Connection,ZONE MEDIUMOFFICE WHOLEBUILDING - MD OFFICE C END_A - STORY GROUND VAV TERMINAL INLET AIR NODE,AIRTERMINAL:SINGLEDUCT:VAV:REHEAT,ZONE MEDIUMOFFICE WHOLEBUILDING - MD OFFICE C END_A - STORY GROUND VAV TERMINAL,Inlet,1
 Non-Parent Node Connection,ZONE MEDIUMOFFICE WHOLEBUILDING - MD OFFICE C END_B - STORY GROUND VAV TERMINAL DAMPER OUTLET,AIRTERMINAL:SINGLEDUCT:VAV:REHEAT,ZONE MEDIUMOFFICE WHOLEBUILDING - MD OFFICE C END_B - STORY GROUND VAV TERMINAL,Outlet,1
 Non-Parent Node Connection,ZONE MEDIUMOFFICE WHOLEBUILDING - MD OFFICE C END_B - STORY GROUND VAV TERMINAL INLET AIR NODE,AIRTERMINAL:SINGLEDUCT:VAV:REHEAT,ZONE MEDIUMOFFICE WHOLEBUILDING - MD OFFICE C END_B - STORY GROUND VAV TERMINAL,Inlet,1
 Non-Parent Node Connection,9 ZONE PVAV MAIN HTG COIL OUTLET AIR NODE,CONTROLLER:WATERCOIL,9 ZONE PVAV MAIN HTG COIL CONTROLLER,Sensor,1
 Non-Parent Node Connection,9 ZONE PVAV MAIN HTG COIL INLET WATER NODE,CONTROLLER:WATERCOIL,9 ZONE PVAV MAIN HTG COIL CONTROLLER,Actuator,1
 Non-Parent Node Connection,9 ZONE PVAV DEMAND OUTLET NODE,AIRLOOPHVAC:ZONEMIXER,AIR LOOP HVAC ZONE MIXER 1,Outlet,1
 Non-Parent Node Connection,ZONE MEDIUMOFFICE WHOLEBUILDING - MD OFFICE C  - STORY GROUND RETURN AIR NODE,AIRLOOPHVAC:ZONEMIXER,AIR LOOP HVAC ZONE MIXER 1,Inlet,1
 Non-Parent Node Connection,ZONE MEDIUMOFFICE WHOLEBUILDING - MD OFFICE B END_B - STORY GROUND RETURN AIR NODE,AIRLOOPHVAC:ZONEMIXER,AIR LOOP HVAC ZONE MIXER 1,Inlet,1
 Non-Parent Node Connection,ZONE MEDIUMOFFICE WHOLEBUILDING - MD OFFICE A  - STORY GROUND RETURN AIR NODE,AIRLOOPHVAC:ZONEMIXER,AIR LOOP HVAC ZONE MIXER 1,Inlet,1
 Non-Parent Node Connection,ZONE MEDIUMOFFICE WHOLEBUILDING - MD OFFICE C END_A - STORY GROUND RETURN AIR NODE,AIRLOOPHVAC:ZONEMIXER,AIR LOOP HVAC ZONE MIXER 1,Inlet,1
 Non-Parent Node Connection,ZONE MEDIUMOFFICE WHOLEBUILDING - MD OFFICE A END_B - STORY GROUND RETURN AIR NODE,AIRLOOPHVAC:ZONEMIXER,AIR LOOP HVAC ZONE MIXER 1,Inlet,1
 Non-Parent Node Connection,ZONE MEDIUMOFFICE WHOLEBUILDING - MD OFFICE B END_A - STORY GROUND RETURN AIR NODE,AIRLOOPHVAC:ZONEMIXER,AIR LOOP HVAC ZONE MIXER 1,Inlet,1
 Non-Parent Node Connection,ZONE MEDIUMOFFICE WHOLEBUILDING - MD OFFICE C END_B - STORY GROUND RETURN AIR NODE,AIRLOOPHVAC:ZONEMIXER,AIR LOOP HVAC ZONE MIXER 1,Inlet,1
 Non-Parent Node Connection,ZONE MEDIUMOFFICE WHOLEBUILDING - MD OFFICE B  - STORY GROUND RETURN AIR NODE,AIRLOOPHVAC:ZONEMIXER,AIR LOOP HVAC ZONE MIXER 1,Inlet,1
 Non-Parent Node Connection,ZONE MEDIUMOFFICE WHOLEBUILDING - MD OFFICE A END_A - STORY GROUND RETURN AIR NODE,AIRLOOPHVAC:ZONEMIXER,AIR LOOP HVAC ZONE MIXER 1,Inlet,1
 Non-Parent Node Connection,9 ZONE PVAV MIXED AIR NODE,OUTDOORAIR:MIXER,9 ZONE PVAV OA SYSTEM OUTDOOR AIR MIXER,Outlet,1
 Non-Parent Node Connection,9 ZONE PVAV OUTDOOR AIR NODE,OUTDOORAIR:MIXER,9 ZONE PVAV OA SYSTEM OUTDOOR AIR MIXER,Inlet,1
 Non-Parent Node Connection,9 ZONE PVAV RELIEF AIR NODE,OUTDOORAIR:MIXER,9 ZONE PVAV OA SYSTEM OUTDOOR AIR MIXER,ReliefAir,1
 Non-Parent Node Connection,9 ZONE PVAV SUPPLY INLET NODE,OUTDOORAIR:MIXER,9 ZONE PVAV OA SYSTEM OUTDOOR AIR MIXER,Inlet,1
 Non-Parent Node Connection,9 ZONE PVAV MAIN HTG COIL OUTLET AIR NODE,FAN:VARIABLEVOLUME,9 ZONE PVAV FAN,Inlet,1
 Non-Parent Node Connection,9 ZONE PVAV SUPPLY OUTLET NODE,FAN:VARIABLEVOLUME,9 ZONE PVAV FAN,Outlet,1
 Non-Parent Node Connection,9 ZONE PVAV MIXED AIR NODE,CONTROLLER:OUTDOORAIR,CONTROLLER OUTDOOR AIR 1,Sensor,1
 Non-Parent Node Connection,9 ZONE PVAV OUTDOOR AIR NODE,CONTROLLER:OUTDOORAIR,CONTROLLER OUTDOOR AIR 1,Actuator,1
 Non-Parent Node Connection,9 ZONE PVAV RELIEF AIR NODE,CONTROLLER:OUTDOORAIR,CONTROLLER OUTDOOR AIR 1,Actuator,1
 Non-Parent Node Connection,9 ZONE PVAV SUPPLY INLET NODE,CONTROLLER:OUTDOORAIR,CONTROLLER OUTDOOR AIR 1,Sensor,1
 Non-Parent Node Connection,9 ZONE PVAV MIXED AIR NODE,COIL:COOLING:DX:TWOSPEED,9 ZONE PVAV 2SPD DX CLG COIL 2370KBTU/HR 9.0EER,Inlet,1
 Non-Parent Node Connection,9 ZONE PVAV 2SPD DX CLG COIL OUTLET AIR NODE,COIL:COOLING:DX:TWOSPEED,9 ZONE PVAV 2SPD DX CLG COIL 2370KBTU/HR 9.0EER,Outlet,1
 Non-Parent Node Connection,HOT WATER LOOP SUPPLY INLET NODE,PUMP:VARIABLESPEED,HOT WATER LOOP PUMP,Inlet,1
 Non-Parent Node Connection,HOT WATER LOOP PUMP OUTLET WATER NODE,PUMP:VARIABLESPEED,HOT WATER LOOP PUMP,Outlet,1
 Non-Parent Node Connection,OFFICE SHARED SERVICE WATER LOOP SUPPLY INLET NODE,PUMP:CONSTANTSPEED,OFFICE SHARED SERVICE WATER LOOP CIRCULATOR PUMP,Inlet,1
 Non-Parent Node Connection,OFFICE SHARED SERVICE WATER LOOP CIRCULATOR PUMP OUTLET WATER NODE,PUMP:CONSTANTSPEED,OFFICE SHARED SERVICE WATER LOOP CIRCULATOR PUMP,Outlet,1
