{
   "completed_at" : "20210625T145333Z",
   "completed_status" : "Success",
   "current_step" : 2,
   "eplusout_err" : "Program Version,EnergyPlus, Version 9.4.0-998c4b761e, YMD=2021.06.25 08:52,\n   ************* Beginning Zone Sizing Calculations\n   ** Warning ** Weather file location will be used rather than entered (IDF) Location object.\n   **   ~~~   ** ..Location object=CLIMATE ZONE 3_CA_USA\n   **   ~~~   ** ..Weather File Location=Climate Zone 3 CA USA CTZRV2 WMO#=724930\n   **   ~~~   ** ..due to location differences, Latitude difference=[9.18] degrees, Longitude difference=[40.82] degrees.\n   **   ~~~   ** ..Time Zone difference=[0.0] hour(s), Elevation difference=[0.00] percent, [0.00] meters.\n   ** Warning ** ProcessScheduleInput: Schedule:Day:Interval=\"9 ZONE PVAV OCC SCH DEFAULT\", Blank Schedule Type Limits Name input -- will not be validated.\n   ** Warning ** ProcessScheduleInput: DecodeHHMMField, Invalid \"until\" field value is not a multiple of the minutes for each timestep: 08:09\n   **   ~~~   ** Other errors may result. Occurred in Day Schedule=9 ZONE PVAV OCC SCH DEFAULT\n   ** Warning ** ProcessScheduleInput: DecodeHHMMField, Invalid \"until\" field value is not a multiple of the minutes for each timestep: 22:50\n   **   ~~~   ** Other errors may result. Occurred in Day Schedule=9 ZONE PVAV OCC SCH DEFAULT\n   ** Warning ** ProcessScheduleInput: Schedule:Day:Interval=\"9 ZONE PVAV OCC SCH SATURDAY\", Blank Schedule Type Limits Name input -- will not be validated.\n   ** Warning ** ProcessScheduleInput: Schedule:Day:Interval=\"9 ZONE PVAV OCC SCH SUMMER DESIGN DAY\", Blank Schedule Type Limits Name input -- will not be validated.\n   ** Warning ** ProcessScheduleInput: Schedule:Day:Interval=\"9 ZONE PVAV OCC SCH SUNDAY\", Blank Schedule Type Limits Name input -- will not be validated.\n   ** Warning ** ProcessScheduleInput: Schedule:Day:Interval=\"9 ZONE PVAV OCC SCH WINTER DESIGN DAY\", Blank Schedule Type Limits Name input -- will not be validated.\n   ** Warning ** ProcessScheduleInput: Schedule:Year=\"9 ZONE PVAV OCC SCH\", Blank Schedule Type Limits Name input -- will not be validated.\n   ** Warning ** ProcessScheduleInput: Schedule:Compact=\"TWOSEASONSCHEDULE\", Blank Schedule Type Limits Name input -- will not be validated.\n   ** Warning ** ProcessScheduleInput: Schedule:Compact=\"TIMEOFDAYSCHEDULE\", Blank Schedule Type Limits Name input -- will not be validated.\n   ** Warning ** ProcessScheduleInput: Schedule:Constant=\"ALWAYS OFF DISCRETE\", Blank Schedule Type Limits Name input -- will not be validated.\n   ** Warning ** ProcessScheduleInput: Schedule:Constant=\"ALWAYS ON CONTINUOUS\", Blank Schedule Type Limits Name input -- will not be validated.\n   ** Warning ** GetHTSurfaceData: Surfaces with interface to Ground found but no \"Ground Temperatures\" were input.\n   **   ~~~   ** Found first in surface=SURFACE 19\n   **   ~~~   ** Defaults, constant throughout the year of (18.0) will be used.\n   ** Warning ** CheckUsedConstructions: There are 11 nominally unused constructions in input.\n   **   ~~~   ** For explicit details on each unused construction, use Output:Diagnostics,DisplayExtraWarnings;\n   ** Warning ** GetInternalHeatGains: People Combination of ZoneList and Object Name generate a name too long.\n   **   ~~~   ** Object Name=\"MEDIUMOFFICE WHOLEBUILDING - MD OFFICE PEOPLE\".\n   **   ~~~   ** ZoneList/Zone Name=\"ZONE MEDIUMOFFICE WHOLEBUILDING - MD OFFICE A  - STORY GROUND\".\n   **   ~~~   ** Item length=[106] > Maximum Length=[100]. You may need to shorten the names.\n   **   ~~~   ** Shortening the Object Name by [12] characters will assure uniqueness for this ZoneList.\n   **   ~~~   ** name that will be used (may be needed in reporting)=\"ZONE MEDIUMOFFICE WHOLEBUILDING - MD OFFICE A  - STORY GROUND MEDIUMOFFICE WHOLEBUILDING - MD OFFICE PEOPLE\".\n   ** Warning ** GetInternalHeatGains: People=\"MEDIUMOFFICE WHOLEBUILDING - MD OFFICE PEOPLE\" has comfort related schedules but no thermal comfort model selected.\n   **   ~~~   ** If schedules are specified for air velocity, clothing insulation, and/or work efficiency but no thermal comfort\n   **   ~~~   ** thermal comfort model is selected, the schedules will be listed as unused schedules in the .err file.\n   **   ~~~   ** To avoid these errors, select a valid thermal comfort model or eliminate these schedules in the PEOPLE input.\n   ** Warning ** GetInternalHeatGains: People Combination of ZoneList and Object Name generate a name too long.\n   **   ~~~   ** Object Name=\"MEDIUMOFFICE WHOLEBUILDING - MD OFFICE PEOPLE\".\n   **   ~~~   ** ZoneList/Zone Name=\"ZONE MEDIUMOFFICE WHOLEBUILDING - MD OFFICE A END_A - STORY GROUND\".\n   **   ~~~   ** Item length=[111] > Maximum Length=[100]. You may need to shorten the names.\n   **   ~~~   ** Shortening the Object Name by [12] characters will assure uniqueness for this ZoneList.\n   **   ~~~   ** name that will be used (may be needed in reporting)=\"ZONE MEDIUMOFFICE WHOLEBUILDING - MD OFFICE A END_A - STORY GROUND MEDIUMOFFICE WHOLEBUILDING - MD OFFICE PEOPLE\".\n   ** Warning ** GetInternalHeatGains: People=\"MEDIUMOFFICE WHOLEBUILDING - MD OFFICE PEOPLE\" has comfort related schedules but no thermal comfort model selected.\n   **   ~~~   ** If schedules are specified for air velocity, clothing insulation, and/or work efficiency but no thermal comfort\n   **   ~~~   ** thermal comfort model is selected, the schedules will be listed as unused schedules in the .err file.\n   **   ~~~   ** To avoid these errors, select a valid thermal comfort model or eliminate these schedules in the PEOPLE input.\n   ** Warning ** GetInternalHeatGains: People Combination of ZoneList and Object Name generate a name too long.\n   **   ~~~   ** Object Name=\"MEDIUMOFFICE WHOLEBUILDING - MD OFFICE PEOPLE\".\n   **   ~~~   ** ZoneList/Zone Name=\"ZONE MEDIUMOFFICE WHOLEBUILDING - MD OFFICE A END_B - STORY GROUND\".\n   **   ~~~   ** Item length=[111] > Maximum Length=[100]. You may need to shorten the names.\n   **   ~~~   ** Shortening the Object Name by [12] characters will assure uniqueness for this ZoneList.\n   **   ~~~   ** name that will be used (may be needed in reporting)=\"ZONE MEDIUMOFFICE WHOLEBUILDING - MD OFFICE A END_B - STORY GROUND MEDIUMOFFICE WHOLEBUILDING - MD OFFICE PEOPLE\".\n   ** Warning ** GetInternalHeatGains: People=\"MEDIUMOFFICE WHOLEBUILDING - MD OFFICE PEOPLE\" has comfort related schedules but no thermal comfort model selected.\n   **   ~~~   ** If schedules are specified for air velocity, clothing insulation, and/or work efficiency but no thermal comfort\n   **   ~~~   ** thermal comfort model is selected, the schedules will be listed as unused schedules in the .err file.\n   **   ~~~   ** To avoid these errors, select a valid thermal comfort model or eliminate these schedules in the PEOPLE input.\n   ** Warning ** GetInternalHeatGains: People Combination of ZoneList and Object Name generate a name too long.\n   **   ~~~   ** Object Name=\"MEDIUMOFFICE WHOLEBUILDING - MD OFFICE PEOPLE\".\n   **   ~~~   ** ZoneList/Zone Name=\"ZONE MEDIUMOFFICE WHOLEBUILDING - MD OFFICE B  - STORY GROUND\".\n   **   ~~~   ** Item length=[106] > Maximum Length=[100]. You may need to shorten the names.\n   **   ~~~   ** Shortening the Object Name by [12] characters will assure uniqueness for this ZoneList.\n   **   ~~~   ** name that will be used (may be needed in reporting)=\"ZONE MEDIUMOFFICE WHOLEBUILDING - MD OFFICE B  - STORY GROUND MEDIUMOFFICE WHOLEBUILDING - MD OFFICE PEOPLE\".\n   ** Warning ** GetInternalHeatGains: People=\"MEDIUMOFFICE WHOLEBUILDING - MD OFFICE PEOPLE\" has comfort related schedules but no thermal comfort model selected.\n   **   ~~~   ** If schedules are specified for air velocity, clothing insulation, and/or work efficiency but no thermal comfort\n   **   ~~~   ** thermal comfort model is selected, the schedules will be listed as unused schedules in the .err file.\n   **   ~~~   ** To avoid these errors, select a valid thermal comfort model or eliminate these schedules in the PEOPLE input.\n   ** Warning ** GetInternalHeatGains: People Combination of ZoneList and Object Name generate a name too long.\n   **   ~~~   ** Object Name=\"MEDIUMOFFICE WHOLEBUILDING - MD OFFICE PEOPLE\".\n   **   ~~~   ** ZoneList/Zone Name=\"ZONE MEDIUMOFFICE WHOLEBUILDING - MD OFFICE B END_A - STORY GROUND\".\n   **   ~~~   ** Item length=[111] > Maximum Length=[100]. You may need to shorten the names.\n   **   ~~~   ** Shortening the Object Name by [12] characters will assure uniqueness for this ZoneList.\n   **   ~~~   ** name that will be used (may be needed in reporting)=\"ZONE MEDIUMOFFICE WHOLEBUILDING - MD OFFICE B END_A - STORY GROUND MEDIUMOFFICE WHOLEBUILDING - MD OFFICE PEOPLE\".\n   ** Warning ** GetInternalHeatGains: People=\"MEDIUMOFFICE WHOLEBUILDING - MD OFFICE PEOPLE\" has comfort related schedules but no thermal comfort model selected.\n   **   ~~~   ** If schedules are specified for air velocity, clothing insulation, and/or work efficiency but no thermal comfort\n   **   ~~~   ** thermal comfort model is selected, the schedules will be listed as unused schedules in the .err file.\n   **   ~~~   ** To avoid these errors, select a valid thermal comfort model or eliminate these schedules in the PEOPLE input.\n   ** Warning ** GetInternalHeatGains: People Combination of ZoneList and Object Name generate a name too long.\n   **   ~~~   ** Object Name=\"MEDIUMOFFICE WHOLEBUILDING - MD OFFICE PEOPLE\".\n   **   ~~~   ** ZoneList/Zone Name=\"ZONE MEDIUMOFFICE WHOLEBUILDING - MD OFFICE B END_B - STORY GROUND\".\n   **   ~~~   ** Item length=[111] > Maximum Length=[100]. You may need to shorten the names.\n   **   ~~~   ** Shortening the Object Name by [12] characters will assure uniqueness for this ZoneList.\n   **   ~~~   ** name that will be used (may be needed in reporting)=\"ZONE MEDIUMOFFICE WHOLEBUILDING - MD OFFICE B END_B - STORY GROUND MEDIUMOFFICE WHOLEBUILDING - MD OFFICE PEOPLE\".\n   ** Warning ** GetInternalHeatGains: People=\"MEDIUMOFFICE WHOLEBUILDING - MD OFFICE PEOPLE\" has comfort related schedules but no thermal comfort model selected.\n   **   ~~~   ** If schedules are specified for air velocity, clothing insulation, and/or work efficiency but no thermal comfort\n   **   ~~~   ** thermal comfort model is selected, the schedules will be listed as unused schedules in the .err file.\n   **   ~~~   ** To avoid these errors, select a valid thermal comfort model or eliminate these schedules in the PEOPLE input.\n   ** Warning ** GetInternalHeatGains: People Combination of ZoneList and Object Name generate a name too long.\n   **   ~~~   ** Object Name=\"MEDIUMOFFICE WHOLEBUILDING - MD OFFICE PEOPLE\".\n   **   ~~~   ** ZoneList/Zone Name=\"ZONE MEDIUMOFFICE WHOLEBUILDING - MD OFFICE C  - STORY GROUND\".\n   **   ~~~   ** Item length=[106] > Maximum Length=[100]. You may need to shorten the names.\n   **   ~~~   ** Shortening the Object Name by [12] characters will assure uniqueness for this ZoneList.\n   **   ~~~   ** name that will be used (may be needed in reporting)=\"ZONE MEDIUMOFFICE WHOLEBUILDING - MD OFFICE C  - STORY GROUND MEDIUMOFFICE WHOLEBUILDING - MD OFFICE PEOPLE\".\n   ** Warning ** GetInternalHeatGains: People=\"MEDIUMOFFICE WHOLEBUILDING - MD OFFICE PEOPLE\" has comfort related schedules but no thermal comfort model selected.\n   **   ~~~   ** If schedules are specified for air velocity, clothing insulation, and/or work efficiency but no thermal comfort\n   **   ~~~   ** thermal comfort model is selected, the schedules will be listed as unused schedules in the .err file.\n   **   ~~~   ** To avoid these errors, select a valid thermal comfort model or eliminate these schedules in the PEOPLE input.\n   ** Warning ** GetInternalHeatGains: People Combination of ZoneList and Object Name generate a name too long.\n   **   ~~~   ** Object Name=\"MEDIUMOFFICE WHOLEBUILDING - MD OFFICE PEOPLE\".\n   **   ~~~   ** ZoneList/Zone Name=\"ZONE MEDIUMOFFICE WHOLEBUILDING - MD OFFICE C END_A - STORY GROUND\".\n   **   ~~~   ** Item length=[111] > Maximum Length=[100]. You may need to shorten the names.\n   **   ~~~   ** Shortening the Object Name by [12] characters will assure uniqueness for this ZoneList.\n   **   ~~~   ** name that will be used (may be needed in reporting)=\"ZONE MEDIUMOFFICE WHOLEBUILDING - MD OFFICE C END_A - STORY GROUND MEDIUMOFFICE WHOLEBUILDING - MD OFFICE PEOPLE\".\n   ** Warning ** GetInternalHeatGains: People=\"MEDIUMOFFICE WHOLEBUILDING - MD OFFICE PEOPLE\" has comfort related schedules but no thermal comfort model selected.\n   **   ~~~   ** If schedules are specified for air velocity, clothing insulation, and/or work efficiency but no thermal comfort\n   **   ~~~   ** thermal comfort model is selected, the schedules will be listed as unused schedules in the .err file.\n   **   ~~~   ** To avoid these errors, select a valid thermal comfort model or eliminate these schedules in the PEOPLE input.\n   ** Warning ** GetInternalHeatGains: People Combination of ZoneList and Object Name generate a name too long.\n   **   ~~~   ** Object Name=\"MEDIUMOFFICE WHOLEBUILDING - MD OFFICE PEOPLE\".\n   **   ~~~   ** ZoneList/Zone Name=\"ZONE MEDIUMOFFICE WHOLEBUILDING - MD OFFICE C END_B - STORY GROUND\".\n   **   ~~~   ** Item length=[111] > Maximum Length=[100]. You may need to shorten the names.\n   **   ~~~   ** Shortening the Object Name by [12] characters will assure uniqueness for this ZoneList.\n   **   ~~~   ** name that will be used (may be needed in reporting)=\"ZONE MEDIUMOFFICE WHOLEBUILDING - MD OFFICE C END_B - STORY GROUND MEDIUMOFFICE WHOLEBUILDING - MD OFFICE PEOPLE\".\n   ** Warning ** GetInternalHeatGains: People=\"MEDIUMOFFICE WHOLEBUILDING - MD OFFICE PEOPLE\" has comfort related schedules but no thermal comfort model selected.\n   **   ~~~   ** If schedules are specified for air velocity, clothing insulation, and/or work efficiency but no thermal comfort\n   **   ~~~   ** thermal comfort model is selected, the schedules will be listed as unused schedules in the .err file.\n   **   ~~~   ** To avoid these errors, select a valid thermal comfort model or eliminate these schedules in the PEOPLE input.\n   ** Warning ** GetInternalHeatGains: Lights Combination of ZoneList and Object Name generate a name too long.\n   **   ~~~   ** Object Name=\"MEDIUMOFFICE WHOLEBUILDING - MD OFFICE LIGHTS\".\n   **   ~~~   ** ZoneList/Zone Name=\"ZONE MEDIUMOFFICE WHOLEBUILDING - MD OFFICE A  - STORY GROUND\".\n   **   ~~~   ** Item length=[106] > Maximum Length=[100]. You may need to shorten the names.\n   **   ~~~   ** Shortening the Object Name by [12] characters will assure uniqueness for this ZoneList.\n   **   ~~~   ** name that will be used (may be needed in reporting)=\"ZONE MEDIUMOFFICE WHOLEBUILDING - MD OFFICE A  - STORY GROUND MEDIUMOFFICE WHOLEBUILDING - MD OFFICE LIGHTS\".\n   ** Warning ** GetInternalHeatGains: Lights Combination of ZoneList and Object Name generate a name too long.\n   **   ~~~   ** Object Name=\"MEDIUMOFFICE WHOLEBUILDING - MD OFFICE LIGHTS\".\n   **   ~~~   ** ZoneList/Zone Name=\"ZONE MEDIUMOFFICE WHOLEBUILDING - MD OFFICE A END_A - STORY GROUND\".\n   **   ~~~   ** Item length=[111] > Maximum Length=[100]. You may need to shorten the names.\n   **   ~~~   ** Shortening the Object Name by [12] characters will assure uniqueness for this ZoneList.\n   **   ~~~   ** name that will be used (may be needed in reporting)=\"ZONE MEDIUMOFFICE WHOLEBUILDING - MD OFFICE A END_A - STORY GROUND MEDIUMOFFICE WHOLEBUILDING - MD OFFICE LIGHTS\".\n   ** Warning ** GetInternalHeatGains: Lights Combination of ZoneList and Object Name generate a name too long.\n   **   ~~~   ** Object Name=\"MEDIUMOFFICE WHOLEBUILDING - MD OFFICE LIGHTS\".\n   **   ~~~   ** ZoneList/Zone Name=\"ZONE MEDIUMOFFICE WHOLEBUILDING - MD OFFICE A END_B - STORY GROUND\".\n   **   ~~~   ** Item length=[111] > Maximum Length=[100]. You may need to shorten the names.\n   **   ~~~   ** Shortening the Object Name by [12] characters will assure uniqueness for this ZoneList.\n   **   ~~~   ** name that will be used (may be needed in reporting)=\"ZONE MEDIUMOFFICE WHOLEBUILDING - MD OFFICE A END_B - STORY GROUND MEDIUMOFFICE WHOLEBUILDING - MD OFFICE LIGHTS\".\n   ** Warning ** GetInternalHeatGains: Lights Combination of ZoneList and Object Name generate a name too long.\n   **   ~~~   ** Object Name=\"MEDIUMOFFICE WHOLEBUILDING - MD OFFICE LIGHTS\".\n   **   ~~~   ** ZoneList/Zone Name=\"ZONE MEDIUMOFFICE WHOLEBUILDING - MD OFFICE B  - STORY GROUND\".\n   **   ~~~   ** Item length=[106] > Maximum Length=[100]. You may need to shorten the names.\n   **   ~~~   ** Shortening the Object Name by [12] characters will assure uniqueness for this ZoneList.\n   **   ~~~   ** name that will be used (may be needed in reporting)=\"ZONE MEDIUMOFFICE WHOLEBUILDING - MD OFFICE B  - STORY GROUND MEDIUMOFFICE WHOLEBUILDING - MD OFFICE LIGHTS\".\n   ** Warning ** GetInternalHeatGains: Lights Combination of ZoneList and Object Name generate a name too long.\n   **   ~~~   ** Object Name=\"MEDIUMOFFICE WHOLEBUILDING - MD OFFICE LIGHTS\".\n   **   ~~~   ** ZoneList/Zone Name=\"ZONE MEDIUMOFFICE WHOLEBUILDING - MD OFFICE B END_A - STORY GROUND\".\n   **   ~~~   ** Item length=[111] > Maximum Length=[100]. You may need to shorten the names.\n   **   ~~~   ** Shortening the Object Name by [12] characters will assure uniqueness for this ZoneList.\n   **   ~~~   ** name that will be used (may be needed in reporting)=\"ZONE MEDIUMOFFICE WHOLEBUILDING - MD OFFICE B END_A - STORY GROUND MEDIUMOFFICE WHOLEBUILDING - MD OFFICE LIGHTS\".\n   ** Warning ** GetInternalHeatGains: Lights Combination of ZoneList and Object Name generate a name too long.\n   **   ~~~   ** Object Name=\"MEDIUMOFFICE WHOLEBUILDING - MD OFFICE LIGHTS\".\n   **   ~~~   ** ZoneList/Zone Name=\"ZONE MEDIUMOFFICE WHOLEBUILDING - MD OFFICE B END_B - STORY GROUND\".\n   **   ~~~   ** Item length=[111] > Maximum Length=[100]. You may need to shorten the names.\n   **   ~~~   ** Shortening the Object Name by [12] characters will assure uniqueness for this ZoneList.\n   **   ~~~   ** name that will be used (may be needed in reporting)=\"ZONE MEDIUMOFFICE WHOLEBUILDING - MD OFFICE B END_B - STORY GROUND MEDIUMOFFICE WHOLEBUILDING - MD OFFICE LIGHTS\".\n   ** Warning ** GetInternalHeatGains: Lights Combination of ZoneList and Object Name generate a name too long.\n   **   ~~~   ** Object Name=\"MEDIUMOFFICE WHOLEBUILDING - MD OFFICE LIGHTS\".\n   **   ~~~   ** ZoneList/Zone Name=\"ZONE MEDIUMOFFICE WHOLEBUILDING - MD OFFICE C  - STORY GROUND\".\n   **   ~~~   ** Item length=[106] > Maximum Length=[100]. You may need to shorten the names.\n   **   ~~~   ** Shortening the Object Name by [12] characters will assure uniqueness for this ZoneList.\n   **   ~~~   ** name that will be used (may be needed in reporting)=\"ZONE MEDIUMOFFICE WHOLEBUILDING - MD OFFICE C  - STORY GROUND MEDIUMOFFICE WHOLEBUILDING - MD OFFICE LIGHTS\".\n   ** Warning ** GetInternalHeatGains: Lights Combination of ZoneList and Object Name generate a name too long.\n   **   ~~~   ** Object Name=\"MEDIUMOFFICE WHOLEBUILDING - MD OFFICE LIGHTS\".\n   **   ~~~   ** ZoneList/Zone Name=\"ZONE MEDIUMOFFICE WHOLEBUILDING - MD OFFICE C END_A - STORY GROUND\".\n   **   ~~~   ** Item length=[111] > Maximum Length=[100]. You may need to shorten the names.\n   **   ~~~   ** Shortening the Object Name by [12] characters will assure uniqueness for this ZoneList.\n   **   ~~~   ** name that will be used (may be needed in reporting)=\"ZONE MEDIUMOFFICE WHOLEBUILDING - MD OFFICE C END_A - STORY GROUND MEDIUMOFFICE WHOLEBUILDING - MD OFFICE LIGHTS\".\n   ** Warning ** GetInternalHeatGains: Lights Combination of ZoneList and Object Name generate a name too long.\n   **   ~~~   ** Object Name=\"MEDIUMOFFICE WHOLEBUILDING - MD OFFICE LIGHTS\".\n   **   ~~~   ** ZoneList/Zone Name=\"ZONE MEDIUMOFFICE WHOLEBUILDING - MD OFFICE C END_B - STORY GROUND\".\n   **   ~~~   ** Item length=[111] > Maximum Length=[100]. You may need to shorten the names.\n   **   ~~~   ** Shortening the Object Name by [12] characters will assure uniqueness for this ZoneList.\n   **   ~~~   ** name that will be used (may be needed in reporting)=\"ZONE MEDIUMOFFICE WHOLEBUILDING - MD OFFICE C END_B - STORY GROUND MEDIUMOFFICE WHOLEBUILDING - MD OFFICE LIGHTS\".\n   ** Warning ** GetInternalHeatGains: ElectricEquipment Combination of ZoneList and Object Name generate a name too long.\n   **   ~~~   ** Object Name=\"MEDIUMOFFICE WHOLEBUILDING - MD OFFICE ELEC EQUIP\".\n   **   ~~~   ** ZoneList/Zone Name=\"ZONE MEDIUMOFFICE WHOLEBUILDING - MD OFFICE A  - STORY GROUND\".\n   **   ~~~   ** Item length=[110] > Maximum Length=[100]. You may need to shorten the names.\n   **   ~~~   ** Shortening the Object Name by [16] characters will assure uniqueness for this ZoneList.\n   **   ~~~   ** name that will be used (may be needed in reporting)=\"ZONE MEDIUMOFFICE WHOLEBUILDING - MD OFFICE A  - STORY GROUND MEDIUMOFFICE WHOLEBUILDING - MD OFFICE ELEC EQUIP\".\n   ** Warning ** GetInternalHeatGains: ElectricEquipment Combination of ZoneList and Object Name generate a name too long.\n   **   ~~~   ** Object Name=\"MEDIUMOFFICE WHOLEBUILDING - MD OFFICE ELEC EQUIP\".\n   **   ~~~   ** ZoneList/Zone Name=\"ZONE MEDIUMOFFICE WHOLEBUILDING - MD OFFICE A END_A - STORY GROUND\".\n   **   ~~~   ** Item length=[115] > Maximum Length=[100]. You may need to shorten the names.\n   **   ~~~   ** Shortening the Object Name by [16] characters will assure uniqueness for this ZoneList.\n   **   ~~~   ** name that will be used (may be needed in reporting)=\"ZONE MEDIUMOFFICE WHOLEBUILDING - MD OFFICE A END_A - STORY GROUND MEDIUMOFFICE WHOLEBUILDING - MD OFFICE ELEC EQUIP\".\n   ** Warning ** GetInternalHeatGains: ElectricEquipment Combination of ZoneList and Object Name generate a name too long.\n   **   ~~~   ** Object Name=\"MEDIUMOFFICE WHOLEBUILDING - MD OFFICE ELEC EQUIP\".\n   **   ~~~   ** ZoneList/Zone Name=\"ZONE MEDIUMOFFICE WHOLEBUILDING - MD OFFICE A END_B - STORY GROUND\".\n   **   ~~~   ** Item length=[115] > Maximum Length=[100]. You may need to shorten the names.\n   **   ~~~   ** Shortening the Object Name by [16] characters will assure uniqueness for this ZoneList.\n   **   ~~~   ** name that will be used (may be needed in reporting)=\"ZONE MEDIUMOFFICE WHOLEBUILDING - MD OFFICE A END_B - STORY GROUND MEDIUMOFFICE WHOLEBUILDING - MD OFFICE ELEC EQUIP\".\n   ** Warning ** GetInternalHeatGains: ElectricEquipment Combination of ZoneList and Object Name generate a name too long.\n   **   ~~~   ** Object Name=\"MEDIUMOFFICE WHOLEBUILDING - MD OFFICE ELEC EQUIP\".\n   **   ~~~   ** ZoneList/Zone Name=\"ZONE MEDIUMOFFICE WHOLEBUILDING - MD OFFICE B  - STORY GROUND\".\n   **   ~~~   ** Item length=[110] > Maximum Length=[100]. You may need to shorten the names.\n   **   ~~~   ** Shortening the Object Name by [16] characters will assure uniqueness for this ZoneList.\n   **   ~~~   ** name that will be used (may be needed in reporting)=\"ZONE MEDIUMOFFICE WHOLEBUILDING - MD OFFICE B  - STORY GROUND MEDIUMOFFICE WHOLEBUILDING - MD OFFICE ELEC EQUIP\".\n   ** Warning ** GetInternalHeatGains: ElectricEquipment Combination of ZoneList and Object Name generate a name too long.\n   **   ~~~   ** Object Name=\"MEDIUMOFFICE WHOLEBUILDING - MD OFFICE ELEC EQUIP\".\n   **   ~~~   ** ZoneList/Zone Name=\"ZONE MEDIUMOFFICE WHOLEBUILDING - MD OFFICE B END_A - STORY GROUND\".\n   **   ~~~   ** Item length=[115] > Maximum Length=[100]. You may need to shorten the names.\n   **   ~~~   ** Shortening the Object Name by [16] characters will assure uniqueness for this ZoneList.\n   **   ~~~   ** name that will be used (may be needed in reporting)=\"ZONE MEDIUMOFFICE WHOLEBUILDING - MD OFFICE B END_A - STORY GROUND MEDIUMOFFICE WHOLEBUILDING - MD OFFICE ELEC EQUIP\".\n   ** Warning ** GetInternalHeatGains: ElectricEquipment Combination of ZoneList and Object Name generate a name too long.\n   **   ~~~   ** Object Name=\"MEDIUMOFFICE WHOLEBUILDING - MD OFFICE ELEC EQUIP\".\n   **   ~~~   ** ZoneList/Zone Name=\"ZONE MEDIUMOFFICE WHOLEBUILDING - MD OFFICE B END_B - STORY GROUND\".\n   **   ~~~   ** Item length=[115] > Maximum Length=[100]. You may need to shorten the names.\n   **   ~~~   ** Shortening the Object Name by [16] characters will assure uniqueness for this ZoneList.\n   **   ~~~   ** name that will be used (may be needed in reporting)=\"ZONE MEDIUMOFFICE WHOLEBUILDING - MD OFFICE B END_B - STORY GROUND MEDIUMOFFICE WHOLEBUILDING - MD OFFICE ELEC EQUIP\".\n   ** Warning ** GetInternalHeatGains: ElectricEquipment Combination of ZoneList and Object Name generate a name too long.\n   **   ~~~   ** Object Name=\"MEDIUMOFFICE WHOLEBUILDING - MD OFFICE ELEC EQUIP\".\n   **   ~~~   ** ZoneList/Zone Name=\"ZONE MEDIUMOFFICE WHOLEBUILDING - MD OFFICE C  - STORY GROUND\".\n   **   ~~~   ** Item length=[110] > Maximum Length=[100]. You may need to shorten the names.\n   **   ~~~   ** Shortening the Object Name by [16] characters will assure uniqueness for this ZoneList.\n   **   ~~~   ** name that will be used (may be needed in reporting)=\"ZONE MEDIUMOFFICE WHOLEBUILDING - MD OFFICE C  - STORY GROUND MEDIUMOFFICE WHOLEBUILDING - MD OFFICE ELEC EQUIP\".\n   ** Warning ** GetInternalHeatGains: ElectricEquipment Combination of ZoneList and Object Name generate a name too long.\n   **   ~~~   ** Object Name=\"MEDIUMOFFICE WHOLEBUILDING - MD OFFICE ELEC EQUIP\".\n   **   ~~~   ** ZoneList/Zone Name=\"ZONE MEDIUMOFFICE WHOLEBUILDING - MD OFFICE C END_A - STORY GROUND\".\n   **   ~~~   ** Item length=[115] > Maximum Length=[100]. You may need to shorten the names.\n   **   ~~~   ** Shortening the Object Name by [16] characters will assure uniqueness for this ZoneList.\n   **   ~~~   ** name that will be used (may be needed in reporting)=\"ZONE MEDIUMOFFICE WHOLEBUILDING - MD OFFICE C END_A - STORY GROUND MEDIUMOFFICE WHOLEBUILDING - MD OFFICE ELEC EQUIP\".\n   ** Warning ** GetInternalHeatGains: ElectricEquipment Combination of ZoneList and Object Name generate a name too long.\n   **   ~~~   ** Object Name=\"MEDIUMOFFICE WHOLEBUILDING - MD OFFICE ELEC EQUIP\".\n   **   ~~~   ** ZoneList/Zone Name=\"ZONE MEDIUMOFFICE WHOLEBUILDING - MD OFFICE C END_B - STORY GROUND\".\n   **   ~~~   ** Item length=[115] > Maximum Length=[100]. You may need to shorten the names.\n   **   ~~~   ** Shortening the Object Name by [16] characters will assure uniqueness for this ZoneList.\n   **   ~~~   ** name that will be used (may be needed in reporting)=\"ZONE MEDIUMOFFICE WHOLEBUILDING - MD OFFICE C END_B - STORY GROUND MEDIUMOFFICE WHOLEBUILDING - MD OFFICE ELEC EQUIP\".\n   ************* Beginning System Sizing Calculations\n   ** Warning ** Since Zone Minimum Air Flow Input Method = CONSTANT, input for Fixed Minimum Air Flow Rate will be ignored.\n   **   ~~~   ** Occurs in AirTerminal:SingleDuct:VAV:Reheat = ZONE MEDIUMOFFICE WHOLEBUILDING - MD OFFICE A  - STORY GROUND VAV TERMINAL\n   ** Warning ** Since Zone Minimum Air Flow Input Method = CONSTANT, input for Fixed Minimum Air Flow Rate will be ignored.\n   **   ~~~   ** Occurs in AirTerminal:SingleDuct:VAV:Reheat = ZONE MEDIUMOFFICE WHOLEBUILDING - MD OFFICE A END_A - STORY GROUND VAV TERMINAL\n   ** Warning ** Since Zone Minimum Air Flow Input Method = CONSTANT, input for Fixed Minimum Air Flow Rate will be ignored.\n   **   ~~~   ** Occurs in AirTerminal:SingleDuct:VAV:Reheat = ZONE MEDIUMOFFICE WHOLEBUILDING - MD OFFICE A END_B - STORY GROUND VAV TERMINAL\n   ** Warning ** Since Zone Minimum Air Flow Input Method = CONSTANT, input for Fixed Minimum Air Flow Rate will be ignored.\n   **   ~~~   ** Occurs in AirTerminal:SingleDuct:VAV:Reheat = ZONE MEDIUMOFFICE WHOLEBUILDING - MD OFFICE B  - STORY GROUND VAV TERMINAL\n   ** Warning ** Since Zone Minimum Air Flow Input Method = CONSTANT, input for Fixed Minimum Air Flow Rate will be ignored.\n   **   ~~~   ** Occurs in AirTerminal:SingleDuct:VAV:Reheat = ZONE MEDIUMOFFICE WHOLEBUILDING - MD OFFICE B END_A - STORY GROUND VAV TERMINAL\n   ** Warning ** Since Zone Minimum Air Flow Input Method = CONSTANT, input for Fixed Minimum Air Flow Rate will be ignored.\n   **   ~~~   ** Occurs in AirTerminal:SingleDuct:VAV:Reheat = ZONE MEDIUMOFFICE WHOLEBUILDING - MD OFFICE B END_B - STORY GROUND VAV TERMINAL\n   ** Warning ** Since Zone Minimum Air Flow Input Method = CONSTANT, input for Fixed Minimum Air Flow Rate will be ignored.\n   **   ~~~   ** Occurs in AirTerminal:SingleDuct:VAV:Reheat = ZONE MEDIUMOFFICE WHOLEBUILDING - MD OFFICE C  - STORY GROUND VAV TERMINAL\n   ** Warning ** Since Zone Minimum Air Flow Input Method = CONSTANT, input for Fixed Minimum Air Flow Rate will be ignored.\n   **   ~~~   ** Occurs in AirTerminal:SingleDuct:VAV:Reheat = ZONE MEDIUMOFFICE WHOLEBUILDING - MD OFFICE C END_A - STORY GROUND VAV TERMINAL\n   ** Warning ** Since Zone Minimum Air Flow Input Method = CONSTANT, input for Fixed Minimum Air Flow Rate will be ignored.\n   **   ~~~   ** Occurs in AirTerminal:SingleDuct:VAV:Reheat = ZONE MEDIUMOFFICE WHOLEBUILDING - MD OFFICE C END_B - STORY GROUND VAV TERMINAL\n   ************* Beginning Plant Sizing Calculations\n   ** Warning ** GetOAControllerInputs: Controller:MechanicalVentilation=\"9 ZONE PVAV VENTILATION CONTROLLER\n   **   ~~~   ** Cannot locate a matching DesignSpecification:ZoneAirDistribution object for Zone=\"ZONE MEDIUMOFFICE WHOLEBUILDING - MD OFFICE A  - STORY GROUND\".\n   **   ~~~   ** Using default zone air distribution effectiveness of 1.0 for heating and cooling.\n   ** Warning ** GetOAControllerInputs: Controller:MechanicalVentilation=\"9 ZONE PVAV VENTILATION CONTROLLER\n   **   ~~~   ** Cannot locate a matching DesignSpecification:ZoneAirDistribution object for Zone=\"ZONE MEDIUMOFFICE WHOLEBUILDING - MD OFFICE A END_A - STORY GROUND\".\n   **   ~~~   ** Using default zone air distribution effectiveness of 1.0 for heating and cooling.\n   ** Warning ** GetOAControllerInputs: Controller:MechanicalVentilation=\"9 ZONE PVAV VENTILATION CONTROLLER\n   **   ~~~   ** Cannot locate a matching DesignSpecification:ZoneAirDistribution object for Zone=\"ZONE MEDIUMOFFICE WHOLEBUILDING - MD OFFICE A END_B - STORY GROUND\".\n   **   ~~~   ** Using default zone air distribution effectiveness of 1.0 for heating and cooling.\n   ** Warning ** GetOAControllerInputs: Controller:MechanicalVentilation=\"9 ZONE PVAV VENTILATION CONTROLLER\n   **   ~~~   ** Cannot locate a matching DesignSpecification:ZoneAirDistribution object for Zone=\"ZONE MEDIUMOFFICE WHOLEBUILDING - MD OFFICE B  - STORY GROUND\".\n   **   ~~~   ** Using default zone air distribution effectiveness of 1.0 for heating and cooling.\n   ** Warning ** GetOAControllerInputs: Controller:MechanicalVentilation=\"9 ZONE PVAV VENTILATION CONTROLLER\n   **   ~~~   ** Cannot locate a matching DesignSpecification:ZoneAirDistribution object for Zone=\"ZONE MEDIUMOFFICE WHOLEBUILDING - MD OFFICE B END_A - STORY GROUND\".\n   **   ~~~   ** Using default zone air distribution effectiveness of 1.0 for heating and cooling.\n   ** Warning ** GetOAControllerInputs: Controller:MechanicalVentilation=\"9 ZONE PVAV VENTILATION CONTROLLER\n   **   ~~~   ** Cannot locate a matching DesignSpecification:ZoneAirDistribution object for Zone=\"ZONE MEDIUMOFFICE WHOLEBUILDING - MD OFFICE B END_B - STORY GROUND\".\n   **   ~~~   ** Using default zone air distribution effectiveness of 1.0 for heating and cooling.\n   ** Warning ** GetOAControllerInputs: Controller:MechanicalVentilation=\"9 ZONE PVAV VENTILATION CONTROLLER\n   **   ~~~   ** Cannot locate a matching DesignSpecification:ZoneAirDistribution object for Zone=\"ZONE MEDIUMOFFICE WHOLEBUILDING - MD OFFICE C  - STORY GROUND\".\n   **   ~~~   ** Using default zone air distribution effectiveness of 1.0 for heating and cooling.\n   ** Warning ** GetOAControllerInputs: Controller:MechanicalVentilation=\"9 ZONE PVAV VENTILATION CONTROLLER\n   **   ~~~   ** Cannot locate a matching DesignSpecification:ZoneAirDistribution object for Zone=\"ZONE MEDIUMOFFICE WHOLEBUILDING - MD OFFICE C END_A - STORY GROUND\".\n   **   ~~~   ** Using default zone air distribution effectiveness of 1.0 for heating and cooling.\n   ** Warning ** GetOAControllerInputs: Controller:MechanicalVentilation=\"9 ZONE PVAV VENTILATION CONTROLLER\n   **   ~~~   ** Cannot locate a matching DesignSpecification:ZoneAirDistribution object for Zone=\"ZONE MEDIUMOFFICE WHOLEBUILDING - MD OFFICE C END_B - STORY GROUND\".\n   **   ~~~   ** Using default zone air distribution effectiveness of 1.0 for heating and cooling.\n   ** Warning ** GetDXCoils: Coil:Cooling:DX:TwoSpeed=\"9 ZONE PVAV 2SPD DX CLG COIL 2370KBTU/HR 9.0EER\", invalid\n   **   ~~~   ** ...Part Load Fraction Correlation Curve Name = COILCLGDXEIRRATIO_FQFRAC has out of range value.\n   **   ~~~   ** ...Curve maximum must be <= 1.0, curve max at PLR = 0.99 is 1.018\n   **   ~~~   ** ...Setting curve maximum to 1.0 and simulation continues.\n   ** Warning ** Output:Meter: invalid Key Name=\"GAS:FACILITY\" - not found.\n   ** Warning ** Output:Meter: invalid Key Name=\"DISTRICTCOOLING:FACILITY\" - not found.\n   ** Warning ** Output:Meter: invalid Key Name=\"DISTRICTHEATING:FACILITY\" - not found.\n   ** Warning ** Output:Meter:MeterFileOnly: invalid Key Name=\"GAS:FACILITY\" - not found.\n   ** Warning ** Output:Meter:MeterFileOnly requested for \"Electricity:Facility\" (TimeStep), already on \"Output:Meter\". Will report to both eplusout.eso and eplusout.mtr\n   ************* Testing Individual Branch Integrity\n   ************* All Branches passed integrity testing\n   ************* Testing Individual Supply Air Path Integrity\n   ************* All Supply Air Paths passed integrity testing\n   ************* Testing Individual Return Air Path Integrity\n   ************* All Return Air Paths passed integrity testing\n   ************* No node connection errors were found.\n   ** Warning ** CalcOAController: Minimum OA fraction > Mechanical Ventilation Controller request for Controller:OutdoorAir=CONTROLLER OUTDOOR AIR 1, Min OA fraction is used.\n   **   ~~~   ** This may be overriding desired ventilation controls. Check inputs for Minimum Outdoor Air Flow Rate, Minimum Outdoor Air Schedule Name and Controller:MechanicalVentilation\n   **   ~~~   ** Minimum OA fraction = 0.7357, Mech Vent OA fraction = 0.4414\n   **   ~~~   **  Environment=CLIMATE ZONE 3 ANN CLG .4% CONDNS DB=>MWB HVAC Sizing Pass 1, at Simulation time=08/21 00:00 - 00:15\n   ** Warning ** GetInputEconomicsTariff: UtilityCost:Tariff=\"IN EIAMONTHLYRATEGAS\" missing meter\n   **   ~~~   ** Meter referenced is not present due to a lack of equipment that uses that energy source/meter:\"GAS:FACILITY\".\n   ** Warning ** GetInputEconomicsTariff: UtilityCost:Tariff=\"IN EIAMONTHLYRATEGAS\" invalid data\n   **   ~~~   ** Conversion Factor Choice=\"MCF\", Defaulting to kWh.\n   ************* Beginning Simulation\n   ** Warning ** The resource referenced by LifeCycleCost:UsePriceEscalation= \"U.S. AVG  COMMERCIAL-ELECTRICITY\" has no energy cost. \n   **   ~~~   ** ... It is likely that the wrong resource is used. The resource should match the meter used in Utility:Tariff.\n   ** Warning ** The resource referenced by LifeCycleCost:UsePriceEscalation= \"U.S. AVG  COMMERCIAL-DISTILLATE OIL\" has no energy cost. \n   **   ~~~   ** ... It is likely that the wrong resource is used. The resource should match the meter used in Utility:Tariff.\n   ** Warning ** The resource referenced by LifeCycleCost:UsePriceEscalation= \"U.S. AVG  COMMERCIAL-RESIDUAL OIL\" has no energy cost. \n   **   ~~~   ** ... It is likely that the wrong resource is used. The resource should match the meter used in Utility:Tariff.\n   ** Warning ** The resource referenced by LifeCycleCost:UsePriceEscalation= \"U.S. AVG  COMMERCIAL-NATURAL GAS\" has no energy cost. \n   **   ~~~   ** ... It is likely that the wrong resource is used. The resource should match the meter used in Utility:Tariff.\n   ** Warning ** The resource referenced by LifeCycleCost:UsePriceEscalation= \"U.S. AVG  COMMERCIAL-COAL\" has no energy cost. \n   **   ~~~   ** ... It is likely that the wrong resource is used. The resource should match the meter used in Utility:Tariff.\n   ************* Simulation Error Summary *************\n   ************* There are 7 unused schedules in input.\n   ************* There are 9 unused week schedules in input.\n   ************* There are 16 unused day schedules in input.\n   ************* Use Output:Diagnostics,DisplayUnusedSchedules; to see them.\n   *************\n   ************* ===== Recurring Error Summary =====\n   ************* The following recurring error messages occurred.\n   *************\n   *************  ** Warning ** Controller:OutdoorAir=\"CONTROLLER OUTDOOR AIR 1\": Min OA fraction > Mechanical ventilation OA fraction, continues...\n   *************  **   ~~~   **   This error occurred 434536 total times;\n   *************  **   ~~~   **   during Warmup 0 times;\n   *************  **   ~~~   **   during Sizing 0 times.\n   *************  **   ~~~   **   Max=0.735691  Min=0.735691\n   *************\n   *************\n   ************* ===== Final Error Summary =====\n   ************* The following error categories occurred.  Consider correcting or noting.\n   ************* Nominally Unused Constructions\n   ************* ..The nominally unused constructions warning is provided to alert you to potential conditions that can cause\n   ************* ..extra time during simulation. Each construction is calculated by the algorithm indicated in the HeatBalanceAlgorithm\n   ************* ..object. You may remove the constructions indicated (when you use the DisplayExtraWarnings option).\n   *************\n   ************* EnergyPlus Warmup Error Summary. During Warmup: 0 Warning; 0 Severe Errors.\n   ************* EnergyPlus Sizing Error Summary. During Sizing: 60 Warning; 0 Severe Errors.\n   ************* EnergyPlus Completed Successfully-- 434619 Warning; 0 Severe Errors; Elapsed Time=00hr 00min 25.25sec\n",
   "file_paths" : 
   [
      "/Users/llin/Documents/repo/edv-experiment-1/workflow_results/Simulation_Files/Panther_parking_Lorriane/Baseline/generated_files",
      "/Users/llin/Documents/repo/edv-experiment-1/.bundle/install/ruby/2.5.0/gems/openstudio-ee-0.2.1/lib/files",
      "/Users/llin/Documents/repo/edv-experiment-1/.bundle/install/ruby/2.5.0/bundler/gems/openstudio-common-measures-gem-994b0808a412/lib/files",
      "/Users/llin/Documents/repo/BuildingSync-gem/lib/files",
      "/Users/llin/Documents/repo/edv-experiment-1/.bundle/install/ruby/2.5.0/bundler/gems/openstudio-model-articulation-gem-8a38c95c12f3/lib/files",
      "/Users/llin/Documents/repo/edv-experiment-1/.bundle/install/ruby/2.5.0/bundler/gems/OpenStudio-extension-gem-96d66c919d23/lib/files",
      "/Users/llin/Documents/repo/edv-experiment-1/.bundle/install/ruby/2.5.0/bundler/gems/openstudio-variability-gem-d88a8aff0624/lib/files",
      "/Users/llin/Documents/repo/edv-experiment-1/.bundle/install/ruby/2.5.0/bundler/gems/openstudio-occupant-variability-gem-c0ff4b72d968/lib/files",
      "./files",
      "./weather",
      "../../files",
      "../../weather",
      "./"
   ],
   "hash" : "1DDCD3E4",
   "measure_paths" : 
   [
      "/Users/llin/Documents/repo/edv-experiment-1/.bundle/install/ruby/2.5.0/bundler/gems/openstudio-common-measures-gem-994b0808a412/lib/measures",
      "/Users/llin/Documents/repo/edv-experiment-1/.bundle/install/ruby/2.5.0/bundler/gems/openstudio-model-articulation-gem-8a38c95c12f3/lib/measures",
      "/Users/llin/Documents/repo/BuildingSync-gem/lib/measures",
      "/Users/llin/Documents/repo/edv-experiment-1/.bundle/install/ruby/2.5.0/gems/openstudio-ee-0.2.1/lib/measures",
      "/Users/llin/Documents/repo/edv-experiment-1/lib/measures/hourly_consumption_by_fuel_to_csv",
      "/Users/llin/Documents/repo/edv-experiment-1/.bundle/install/ruby/2.5.0/bundler/gems/openstudio-occupant-variability-gem-c0ff4b72d968/lib/measures",
      "/Users/llin/Documents/repo/edv-experiment-1/.bundle/install/ruby/2.5.0/bundler/gems/openstudio-variability-gem-d88a8aff0624/lib/measures",
      "/Users/llin/Documents/repo/edv-experiment-1/.bundle/install/ruby/2.5.0/bundler/gems/OpenStudio-extension-gem-96d66c919d23/lib/measures"
   ],
   "root_directory" : null,
   "run_directory" : "/Users/llin/Documents/repo/edv-experiment-1/workflow_results/Simulation_Files/Panther_parking_Lorriane/Baseline",
   "seed_file" : "../in.osm",
   "started_at" : "20210625T145247Z",
   "steps" : 
   [
      {
         "arguments" : 
         {
            "__SKIP__" : false
         },
         "measure_dir_name" : "tariff_selection_generic",
         "result" : 
         {
            "completed_at" : "20210625T145248Z",
            "measure_class_name" : "TariffSelectionGeneric",
            "measure_display_name" : " Tariff Selection-Generic",
            "measure_name" : "tariff_selection_generic",
            "measure_taxonomy" : "Economics.Life Cycle Cost Analysis",
            "measure_type" : "EnergyPlusMeasure",
            "measure_uid" : "d65ae535-f0ea-4745-9f5b-8d42c7070741",
            "measure_version_id" : "852a1d4f-c670-4ff3-931b-f2e4a697ffab",
            "measure_version_modified" : "20200401T050100Z",
            "measure_xml_checksum" : "43564105",
            "started_at" : "20210625T145248Z",
            "stderr" : "",
            "stdout" : "",
            "step_errors" : [],
            "step_files" : [],
            "step_final_condition" : "The model finished with 2 tariff objects.",
            "step_info" : 
            [
               "added a ElectricityPurchased:Facility tariff from Example_F.idf",
               "added a Gas:Facility tariff from IN-EIAMonthlyRateGas.idf",
               "Changing the simulation timestep to 4 timesteps per hour from 6 per hour to match the demand window of the tariffs"
            ],
            "step_initial_condition" : "The model started with 0 tariff objects.",
            "step_result" : "Success",
            "step_values" : 
            [
               {
                  "name" : "ElectricityPurchased:Facility",
                  "value" : "Example_F"
               },
               {
                  "name" : "Gas:Facility",
                  "value" : "IN-EIAMonthlyRateGas"
               }
            ],
            "step_warnings" : []
         }
      },
      {
         "arguments" : 
         {
            "__SKIP__" : false,
            "air_loops_detail_section" : true,
            "annual_overview_section" : true,
            "building_summary_section" : true,
            "cost_summary_section" : true,
            "envelope_section_section" : true,
            "exterior_light_section" : true,
            "hvac_load_profile" : true,
            "interior_lighting_section" : true,
            "monthly_overview_section" : true,
            "outdoor_air_section" : true,
            "plant_loops_detail_section" : true,
            "plug_loads_section" : true,
            "reg_monthly_details" : true,
            "schedules_overview_section" : true,
            "source_energy_section" : true,
            "space_type_breakdown_section" : true,
            "space_type_details_section" : true,
            "utility_bills_rates_section" : true,
            "water_use_section" : true,
            "zone_condition_section" : true,
            "zone_equipment_detail_section" : true,
            "zone_summary_section" : true
         },
         "measure_dir_name" : "openstudio_results",
         "result" : 
         {
            "completed_at" : "20210625T145332Z",
            "measure_class_name" : "OpenStudioResults",
            "measure_display_name" : "OpenStudio Results",
            "measure_name" : "openstudio_results",
            "measure_taxonomy" : "Reporting.QAQC",
            "measure_type" : "ReportingMeasure",
            "measure_uid" : "a25386cd-60e4-46bc-8b11-c755f379d916",
            "measure_version_id" : "5d24f032-e2e4-407f-a20d-9f76e15d4ac1",
            "measure_version_modified" : "20200626T221404Z",
            "measure_xml_checksum" : "557BF06F",
            "started_at" : "20210625T145318Z",
            "stderr" : "",
            "stdout" : "",
            "step_errors" : [],
            "step_files" : [],
            "step_final_condition" : "Generated report with 21 sections to ./report.html.",
            "step_info" : 
            [
               "Monthly End Use by Fuel registerValues have been requested."
            ],
            "step_initial_condition" : "Gathering data from EnergyPlus SQL file and OSM model. Will report in IP Units",
            "step_result" : "Success",
            "step_values" : 
            [
               {
                  "name" : "units",
                  "value" : "IP"
               },
               {
                  "name" : "building_summary_section",
                  "value" : true
               },
               {
                  "name" : "annual_overview_section",
                  "value" : true
               },
               {
                  "name" : "monthly_overview_section",
                  "value" : true
               },
               {
                  "name" : "utility_bills_rates_section",
                  "value" : true
               },
               {
                  "name" : "envelope_section_section",
                  "value" : true
               },
               {
                  "name" : "space_type_breakdown_section",
                  "value" : true
               },
               {
                  "name" : "space_type_details_section",
                  "value" : true
               },
               {
                  "name" : "interior_lighting_section",
                  "value" : true
               },
               {
                  "name" : "plug_loads_section",
                  "value" : true
               },
               {
                  "name" : "exterior_light_section",
                  "value" : true
               },
               {
                  "name" : "water_use_section",
                  "value" : true
               },
               {
                  "name" : "hvac_load_profile",
                  "value" : true
               },
               {
                  "name" : "zone_condition_section",
                  "value" : true
               },
               {
                  "name" : "zone_summary_section",
                  "value" : true
               },
               {
                  "name" : "zone_equipment_detail_section",
                  "value" : true
               },
               {
                  "name" : "air_loops_detail_section",
                  "value" : true
               },
               {
                  "name" : "plant_loops_detail_section",
                  "value" : true
               },
               {
                  "name" : "outdoor_air_section",
                  "value" : true
               },
               {
                  "name" : "cost_summary_section",
                  "value" : true
               },
               {
                  "name" : "source_energy_section",
                  "value" : true
               },
               {
                  "name" : "schedules_overview_section",
                  "value" : true
               },
               {
                  "name" : "measure_warning_section",
                  "value" : true
               },
               {
                  "name" : "reg_monthly_details",
                  "value" : true
               },
               {
                  "name" : "standards_gem_version",
                  "value" : "0.2.13.rc3"
               },
               {
                  "name" : "workflow_gem_version",
                  "value" : "2.0.1"
               },
               {
                  "display_name" : "90.1-2007|MediumOffice|MediumOffice",
                  "name" : "building_name",
                  "value" : "n/a"
               },
               {
                  "name" : "total_site_energy",
                  "units" : "kBtu",
                  "value" : 13768105.227725683
               },
               {
                  "name" : "net_site_energy",
                  "units" : "kBtu",
                  "value" : 13768105.227725683
               },
               {
                  "name" : "total_building_area",
                  "units" : "ft^2",
                  "value" : 387638.01485936303
               },
               {
                  "name" : "total_site_eui",
                  "units" : "kBtu/ft^2",
                  "value" : 35.51794380311442
               },
               {
                  "name" : "eui",
                  "units" : "kBtu/ft^2",
                  "value" : 35.51794380311442
               },
               {
                  "name" : "unmet_hours_during_heating",
                  "units" : "hr",
                  "value" : 1025.5
               },
               {
                  "name" : "unmet_hours_during_cooling",
                  "units" : "hr",
                  "value" : 393.5
               },
               {
                  "name" : "unmet_hours_during_occupied_heating",
                  "units" : "hr",
                  "value" : 631.0
               },
               {
                  "name" : "unmet_hours_during_occupied_cooling",
                  "units" : "hr",
                  "value" : 380.25
               },
               {
                  "name" : "unmet_hours_tolerance_heating",
                  "units" : "R",
                  "value" : 0.35999999999999999
               },
               {
                  "name" : "unmet_hours_tolerance_cooling",
                  "units" : "R",
                  "value" : 0.35999999999999999
               },
               {
                  "name" : "end_use_electricity_heating_jan",
                  "units" : "kWh",
                  "value" : 0.0
               },
               {
                  "name" : "end_use_electricity_heating_feb",
                  "units" : "kWh",
                  "value" : 0.0
               },
               {
                  "name" : "end_use_electricity_heating_mar",
                  "units" : "kWh",
                  "value" : 0.0
               },
               {
                  "name" : "end_use_electricity_heating_apr",
                  "units" : "kWh",
                  "value" : 0.0
               },
               {
                  "name" : "end_use_electricity_heating_may",
                  "units" : "kWh",
                  "value" : 0.0
               },
               {
                  "name" : "end_use_electricity_heating_jun",
                  "units" : "kWh",
                  "value" : 0.0
               },
               {
                  "name" : "end_use_electricity_heating_jul",
                  "units" : "kWh",
                  "value" : 0.0
               },
               {
                  "name" : "end_use_electricity_heating_aug",
                  "units" : "kWh",
                  "value" : 0.0
               },
               {
                  "name" : "end_use_electricity_heating_sep",
                  "units" : "kWh",
                  "value" : 0.0
               },
               {
                  "name" : "end_use_electricity_heating_oct",
                  "units" : "kWh",
                  "value" : 0.0
               },
               {
                  "name" : "end_use_electricity_heating_nov",
                  "units" : "kWh",
                  "value" : 0.0
               },
               {
                  "name" : "end_use_electricity_heating_dec",
                  "units" : "kWh",
                  "value" : 0.0
               },
               {
                  "name" : "electricity_heating_ip",
                  "units" : "kWh",
                  "value" : 0.0
               },
               {
                  "name" : "end_use_electricity_cooling_jan",
                  "units" : "kWh",
                  "value" : 5163.083333333333
               },
               {
                  "name" : "end_use_electricity_cooling_feb",
                  "units" : "kWh",
                  "value" : 7667.583333333333
               },
               {
                  "name" : "end_use_electricity_cooling_mar",
                  "units" : "kWh",
                  "value" : 10448.527777777777
               },
               {
                  "name" : "end_use_electricity_cooling_apr",
                  "units" : "kWh",
                  "value" : 14013.416666666666
               },
               {
                  "name" : "end_use_electricity_cooling_may",
                  "units" : "kWh",
                  "value" : 18423.305555555555
               },
               {
                  "name" : "end_use_electricity_cooling_jun",
                  "units" : "kWh",
                  "value" : 28555.833333333332
               },
               {
                  "name" : "end_use_electricity_cooling_jul",
                  "units" : "kWh",
                  "value" : 33921.666666666664
               },
               {
                  "name" : "end_use_electricity_cooling_aug",
                  "units" : "kWh",
                  "value" : 34393.611111111109
               },
               {
                  "name" : "end_use_electricity_cooling_sep",
                  "units" : "kWh",
                  "value" : 36610.833333333336
               },
               {
                  "name" : "end_use_electricity_cooling_oct",
                  "units" : "kWh",
                  "value" : 28857.5
               },
               {
                  "name" : "end_use_electricity_cooling_nov",
                  "units" : "kWh",
                  "value" : 12256.194444444443
               },
               {
                  "name" : "end_use_electricity_cooling_dec",
                  "units" : "kWh",
                  "value" : 4519.1388888888887
               },
               {
                  "name" : "electricity_cooling_ip",
                  "units" : "kWh",
                  "value" : 234830.69444444447
               },
               {
                  "name" : "end_use_electricity_interior_lighting_jan",
                  "units" : "kWh",
                  "value" : 87811.388888888891
               },
               {
                  "name" : "end_use_electricity_interior_lighting_feb",
                  "units" : "kWh",
                  "value" : 77583.333333333328
               },
               {
                  "name" : "end_use_electricity_interior_lighting_mar",
                  "units" : "kWh",
                  "value" : 83341.666666666672
               },
               {
                  "name" : "end_use_electricity_interior_lighting_apr",
                  "units" : "kWh",
                  "value" : 84401.944444444453
               },
               {
                  "name" : "end_use_electricity_interior_lighting_may",
                  "units" : "kWh",
                  "value" : 87811.388888888891
               },
               {
                  "name" : "end_use_electricity_interior_lighting_jun",
                  "units" : "kWh",
                  "value" : 79932.222222222219
               },
               {
                  "name" : "end_use_electricity_interior_lighting_jul",
                  "units" : "kWh",
                  "value" : 87811.388888888891
               },
               {
                  "name" : "end_use_electricity_interior_lighting_aug",
                  "units" : "kWh",
                  "value" : 86285.833333333328
               },
               {
                  "name" : "end_use_electricity_interior_lighting_sep",
                  "units" : "kWh",
                  "value" : 81457.777777777781
               },
               {
                  "name" : "end_use_electricity_interior_lighting_oct",
                  "units" : "kWh",
                  "value" : 87811.388888888891
               },
               {
                  "name" : "end_use_electricity_interior_lighting_nov",
                  "units" : "kWh",
                  "value" : 82876.388888888891
               },
               {
                  "name" : "end_use_electricity_interior_lighting_dec",
                  "units" : "kWh",
                  "value" : 84867.222222222219
               },
               {
                  "name" : "electricity_interior_lighting_ip",
                  "units" : "kWh",
                  "value" : 1011991.9444444445
               },
               {
                  "name" : "electricity_exterior_lighting_ip",
                  "units" : "kWh",
                  "value" : 0.0
               },
               {
                  "name" : "end_use_electricity_interior_equipment_jan",
                  "units" : "kWh",
                  "value" : 108440.0
               },
               {
                  "name" : "end_use_electricity_interior_equipment_feb",
                  "units" : "kWh",
                  "value" : 97015.0
               },
               {
                  "name" : "end_use_electricity_interior_equipment_mar",
                  "units" : "kWh",
                  "value" : 106035.27777777778
               },
               {
                  "name" : "end_use_electricity_interior_equipment_apr",
                  "units" : "kWh",
                  "value" : 104631.66666666667
               },
               {
                  "name" : "end_use_electricity_interior_equipment_may",
                  "units" : "kWh",
                  "value" : 108440.0
               },
               {
                  "name" : "end_use_electricity_interior_equipment_jun",
                  "units" : "kWh",
                  "value" : 102226.66666666667
               },
               {
                  "name" : "end_use_electricity_interior_equipment_jul",
                  "units" : "kWh",
                  "value" : 108440.0
               },
               {
                  "name" : "end_use_electricity_interior_equipment_aug",
                  "units" : "kWh",
                  "value" : 107750.27777777778
               },
               {
                  "name" : "end_use_electricity_interior_equipment_sep",
                  "units" : "kWh",
                  "value" : 102916.66666666667
               },
               {
                  "name" : "end_use_electricity_interior_equipment_oct",
                  "units" : "kWh",
                  "value" : 108440.0
               },
               {
                  "name" : "end_use_electricity_interior_equipment_nov",
                  "units" : "kWh",
                  "value" : 103941.94444444445
               },
               {
                  "name" : "end_use_electricity_interior_equipment_dec",
                  "units" : "kWh",
                  "value" : 106725.0
               },
               {
                  "name" : "electricity_interior_equipment_ip",
                  "units" : "kWh",
                  "value" : 1265002.5
               },
               {
                  "name" : "electricity_exterior_equipment_ip",
                  "units" : "kWh",
                  "value" : 0.0
               },
               {
                  "name" : "end_use_electricity_fans_jan",
                  "units" : "kWh",
                  "value" : 19207.861111111113
               },
               {
                  "name" : "end_use_electricity_fans_feb",
                  "units" : "kWh",
                  "value" : 16645.75
               },
               {
                  "name" : "end_use_electricity_fans_mar",
                  "units" : "kWh",
                  "value" : 16879.055555555555
               },
               {
                  "name" : "end_use_electricity_fans_apr",
                  "units" : "kWh",
                  "value" : 16983.0
               },
               {
                  "name" : "end_use_electricity_fans_may",
                  "units" : "kWh",
                  "value" : 16660.75
               },
               {
                  "name" : "end_use_electricity_fans_jun",
                  "units" : "kWh",
                  "value" : 15639.527777777779
               },
               {
                  "name" : "end_use_electricity_fans_jul",
                  "units" : "kWh",
                  "value" : 16606.305555555555
               },
               {
                  "name" : "end_use_electricity_fans_aug",
                  "units" : "kWh",
                  "value" : 17062.055555555555
               },
               {
                  "name" : "end_use_electricity_fans_sep",
                  "units" : "kWh",
                  "value" : 16125.944444444445
               },
               {
                  "name" : "end_use_electricity_fans_oct",
                  "units" : "kWh",
                  "value" : 17189.944444444445
               },
               {
                  "name" : "end_use_electricity_fans_nov",
                  "units" : "kWh",
                  "value" : 17530.694444444445
               },
               {
                  "name" : "end_use_electricity_fans_dec",
                  "units" : "kWh",
                  "value" : 18384.888888888887
               },
               {
                  "name" : "electricity_fans_ip",
                  "units" : "kWh",
                  "value" : 204915.77777777778
               },
               {
                  "name" : "end_use_electricity_pumps_jan",
                  "units" : "kWh",
                  "value" : 846.45277777777778
               },
               {
                  "name" : "end_use_electricity_pumps_feb",
                  "units" : "kWh",
                  "value" : 554.35000000000002
               },
               {
                  "name" : "end_use_electricity_pumps_mar",
                  "units" : "kWh",
                  "value" : 495.8416666666667
               },
               {
                  "name" : "end_use_electricity_pumps_apr",
                  "units" : "kWh",
                  "value" : 389.62222222222226
               },
               {
                  "name" : "end_use_electricity_pumps_may",
                  "units" : "kWh",
                  "value" : 286.74166666666667
               },
               {
                  "name" : "end_use_electricity_pumps_jun",
                  "units" : "kWh",
                  "value" : 203.99361111111114
               },
               {
                  "name" : "end_use_electricity_pumps_jul",
                  "units" : "kWh",
                  "value" : 206.98000000000002
               },
               {
                  "name" : "end_use_electricity_pumps_aug",
                  "units" : "kWh",
                  "value" : 229.50305555555556
               },
               {
                  "name" : "end_use_electricity_pumps_sep",
                  "units" : "kWh",
                  "value" : 229.39388888888888
               },
               {
                  "name" : "end_use_electricity_pumps_oct",
                  "units" : "kWh",
                  "value" : 321.00555555555559
               },
               {
                  "name" : "end_use_electricity_pumps_nov",
                  "units" : "kWh",
                  "value" : 539.94444444444446
               },
               {
                  "name" : "end_use_electricity_pumps_dec",
                  "units" : "kWh",
                  "value" : 839.56388888888887
               },
               {
                  "name" : "electricity_pumps_ip",
                  "units" : "kWh",
                  "value" : 5143.3927777777781
               },
               {
                  "name" : "electricity_heat_rejection_ip",
                  "units" : "kWh",
                  "value" : 0.0
               },
               {
                  "name" : "electricity_humidification_ip",
                  "units" : "kWh",
                  "value" : 0.0
               },
               {
                  "name" : "electricity_heat_recovery_ip",
                  "units" : "kWh",
                  "value" : 0.0
               },
               {
                  "name" : "electricity_water_systems_ip",
                  "units" : "kWh",
                  "value" : 0.0
               },
               {
                  "name" : "electricity_refrigeration_ip",
                  "units" : "kWh",
                  "value" : 0.0
               },
               {
                  "name" : "electricity_generators_ip",
                  "units" : "kWh",
                  "value" : 0.0
               },
               {
                  "name" : "electricity_ip",
                  "units" : "kWh",
                  "value" : 2721884.3094444447
               },
               {
                  "name" : "electricity_ip_jan",
                  "units" : "kWh",
                  "value" : 221468.78611111111
               },
               {
                  "name" : "electricity_ip_feb",
                  "units" : "kWh",
                  "value" : 199466.01666666666
               },
               {
                  "name" : "electricity_ip_mar",
                  "units" : "kWh",
                  "value" : 217200.36944444446
               },
               {
                  "name" : "electricity_ip_apr",
                  "units" : "kWh",
                  "value" : 220419.64999999999
               },
               {
                  "name" : "electricity_ip_may",
                  "units" : "kWh",
                  "value" : 231622.18611111111
               },
               {
                  "name" : "electricity_ip_jun",
                  "units" : "kWh",
                  "value" : 226558.2436111111
               },
               {
                  "name" : "electricity_ip_jul",
                  "units" : "kWh",
                  "value" : 246986.34111111111
               },
               {
                  "name" : "electricity_ip_aug",
                  "units" : "kWh",
                  "value" : 245721.28083333335
               },
               {
                  "name" : "electricity_ip_sep",
                  "units" : "kWh",
                  "value" : 237340.6161111111
               },
               {
                  "name" : "electricity_ip_oct",
                  "units" : "kWh",
                  "value" : 242619.83888888889
               },
               {
                  "name" : "electricity_ip_nov",
                  "units" : "kWh",
                  "value" : 217145.16666666666
               },
               {
                  "name" : "electricity_ip_dec",
                  "units" : "kWh",
                  "value" : 215335.81388888889
               },
               {
                  "name" : "natural_gas_heating_ip",
                  "units" : "MBtu",
                  "value" : 0.0
               },
               {
                  "name" : "natural_gas_cooling_ip",
                  "units" : "MBtu",
                  "value" : 0.0
               },
               {
                  "name" : "natural_gas_interior_lighting_ip",
                  "units" : "MBtu",
                  "value" : 0.0
               },
               {
                  "name" : "natural_gas_exterior_lighting_ip",
                  "units" : "MBtu",
                  "value" : 0.0
               },
               {
                  "name" : "natural_gas_interior_equipment_ip",
                  "units" : "MBtu",
                  "value" : 0.0
               },
               {
                  "name" : "natural_gas_exterior_equipment_ip",
                  "units" : "MBtu",
                  "value" : 0.0
               },
               {
                  "name" : "natural_gas_fans_ip",
                  "units" : "MBtu",
                  "value" : 0.0
               },
               {
                  "name" : "natural_gas_pumps_ip",
                  "units" : "MBtu",
                  "value" : 0.0
               },
               {
                  "name" : "natural_gas_heat_rejection_ip",
                  "units" : "MBtu",
                  "value" : 0.0
               },
               {
                  "name" : "natural_gas_humidification_ip",
                  "units" : "MBtu",
                  "value" : 0.0
               },
               {
                  "name" : "natural_gas_heat_recovery_ip",
                  "units" : "MBtu",
                  "value" : 0.0
               },
               {
                  "name" : "natural_gas_water_systems_ip",
                  "units" : "MBtu",
                  "value" : 0.0
               },
               {
                  "name" : "natural_gas_refrigeration_ip",
                  "units" : "MBtu",
                  "value" : 0.0
               },
               {
                  "name" : "natural_gas_generators_ip",
                  "units" : "MBtu",
                  "value" : 0.0
               },
               {
                  "name" : "natural_gas_ip",
                  "units" : "MBtu",
                  "value" : 0.0
               },
               {
                  "name" : "natural_gas_ip_jan",
                  "units" : "MBtu",
                  "value" : 0.0
               },
               {
                  "name" : "natural_gas_ip_feb",
                  "units" : "MBtu",
                  "value" : 0.0
               },
               {
                  "name" : "natural_gas_ip_mar",
                  "units" : "MBtu",
                  "value" : 0.0
               },
               {
                  "name" : "natural_gas_ip_apr",
                  "units" : "MBtu",
                  "value" : 0.0
               },
               {
                  "name" : "natural_gas_ip_may",
                  "units" : "MBtu",
                  "value" : 0.0
               },
               {
                  "name" : "natural_gas_ip_jun",
                  "units" : "MBtu",
                  "value" : 0.0
               },
               {
                  "name" : "natural_gas_ip_jul",
                  "units" : "MBtu",
                  "value" : 0.0
               },
               {
                  "name" : "natural_gas_ip_aug",
                  "units" : "MBtu",
                  "value" : 0.0
               },
               {
                  "name" : "natural_gas_ip_sep",
                  "units" : "MBtu",
                  "value" : 0.0
               },
               {
                  "name" : "natural_gas_ip_oct",
                  "units" : "MBtu",
                  "value" : 0.0
               },
               {
                  "name" : "natural_gas_ip_nov",
                  "units" : "MBtu",
                  "value" : 0.0
               },
               {
                  "name" : "natural_gas_ip_dec",
                  "units" : "MBtu",
                  "value" : 0.0
               },
               {
                  "name" : "fuel_oil_no_1_heating_ip",
                  "units" : "MBtu",
                  "value" : 0.0
               },
               {
                  "name" : "fuel_oil_no_1_cooling_ip",
                  "units" : "MBtu",
                  "value" : 0.0
               },
               {
                  "name" : "fuel_oil_no_1_interior_lighting_ip",
                  "units" : "MBtu",
                  "value" : 0.0
               },
               {
                  "name" : "fuel_oil_no_1_exterior_lighting_ip",
                  "units" : "MBtu",
                  "value" : 0.0
               },
               {
                  "name" : "fuel_oil_no_1_interior_equipment_ip",
                  "units" : "MBtu",
                  "value" : 0.0
               },
               {
                  "name" : "fuel_oil_no_1_exterior_equipment_ip",
                  "units" : "MBtu",
                  "value" : 0.0
               },
               {
                  "name" : "fuel_oil_no_1_fans_ip",
                  "units" : "MBtu",
                  "value" : 0.0
               },
               {
                  "name" : "fuel_oil_no_1_pumps_ip",
                  "units" : "MBtu",
                  "value" : 0.0
               },
               {
                  "name" : "fuel_oil_no_1_heat_rejection_ip",
                  "units" : "MBtu",
                  "value" : 0.0
               },
               {
                  "name" : "fuel_oil_no_1_humidification_ip",
                  "units" : "MBtu",
                  "value" : 0.0
               },
               {
                  "name" : "fuel_oil_no_1_heat_recovery_ip",
                  "units" : "MBtu",
                  "value" : 0.0
               },
               {
                  "name" : "fuel_oil_no_1_water_systems_ip",
                  "units" : "MBtu",
                  "value" : 0.0
               },
               {
                  "name" : "fuel_oil_no_1_refrigeration_ip",
                  "units" : "MBtu",
                  "value" : 0.0
               },
               {
                  "name" : "fuel_oil_no_1_generators_ip",
                  "units" : "MBtu",
                  "value" : 0.0
               },
               {
                  "name" : "fuel_oil_no_1_ip",
                  "units" : "MBtu",
                  "value" : 0.0
               },
               {
                  "name" : "fuel_oil_no_1_ip_jan",
                  "units" : "MBtu",
                  "value" : 0.0
               },
               {
                  "name" : "fuel_oil_no_1_ip_feb",
                  "units" : "MBtu",
                  "value" : 0.0
               },
               {
                  "name" : "fuel_oil_no_1_ip_mar",
                  "units" : "MBtu",
                  "value" : 0.0
               },
               {
                  "name" : "fuel_oil_no_1_ip_apr",
                  "units" : "MBtu",
                  "value" : 0.0
               },
               {
                  "name" : "fuel_oil_no_1_ip_may",
                  "units" : "MBtu",
                  "value" : 0.0
               },
               {
                  "name" : "fuel_oil_no_1_ip_jun",
                  "units" : "MBtu",
                  "value" : 0.0
               },
               {
                  "name" : "fuel_oil_no_1_ip_jul",
                  "units" : "MBtu",
                  "value" : 0.0
               },
               {
                  "name" : "fuel_oil_no_1_ip_aug",
                  "units" : "MBtu",
                  "value" : 0.0
               },
               {
                  "name" : "fuel_oil_no_1_ip_sep",
                  "units" : "MBtu",
                  "value" : 0.0
               },
               {
                  "name" : "fuel_oil_no_1_ip_oct",
                  "units" : "MBtu",
                  "value" : 0.0
               },
               {
                  "name" : "fuel_oil_no_1_ip_nov",
                  "units" : "MBtu",
                  "value" : 0.0
               },
               {
                  "name" : "fuel_oil_no_1_ip_dec",
                  "units" : "MBtu",
                  "value" : 0.0
               },
               {
                  "name" : "fuel_oil_no_2_heating_ip",
                  "units" : "MBtu",
                  "value" : 0.0
               },
               {
                  "name" : "fuel_oil_no_2_cooling_ip",
                  "units" : "MBtu",
                  "value" : 0.0
               },
               {
                  "name" : "fuel_oil_no_2_interior_lighting_ip",
                  "units" : "MBtu",
                  "value" : 0.0
               },
               {
                  "name" : "fuel_oil_no_2_exterior_lighting_ip",
                  "units" : "MBtu",
                  "value" : 0.0
               },
               {
                  "name" : "fuel_oil_no_2_interior_equipment_ip",
                  "units" : "MBtu",
                  "value" : 0.0
               },
               {
                  "name" : "fuel_oil_no_2_exterior_equipment_ip",
                  "units" : "MBtu",
                  "value" : 0.0
               },
               {
                  "name" : "fuel_oil_no_2_fans_ip",
                  "units" : "MBtu",
                  "value" : 0.0
               },
               {
                  "name" : "fuel_oil_no_2_pumps_ip",
                  "units" : "MBtu",
                  "value" : 0.0
               },
               {
                  "name" : "fuel_oil_no_2_heat_rejection_ip",
                  "units" : "MBtu",
                  "value" : 0.0
               },
               {
                  "name" : "fuel_oil_no_2_humidification_ip",
                  "units" : "MBtu",
                  "value" : 0.0
               },
               {
                  "name" : "fuel_oil_no_2_heat_recovery_ip",
                  "units" : "MBtu",
                  "value" : 0.0
               },
               {
                  "name" : "fuel_oil_no_2_water_systems_ip",
                  "units" : "MBtu",
                  "value" : 0.0
               },
               {
                  "name" : "fuel_oil_no_2_refrigeration_ip",
                  "units" : "MBtu",
                  "value" : 0.0
               },
               {
                  "name" : "fuel_oil_no_2_generators_ip",
                  "units" : "MBtu",
                  "value" : 0.0
               },
               {
                  "name" : "fuel_oil_no_2_ip",
                  "units" : "MBtu",
                  "value" : 0.0
               },
               {
                  "name" : "fuel_oil_no_2_ip_jan",
                  "units" : "MBtu",
                  "value" : 0.0
               },
               {
                  "name" : "fuel_oil_no_2_ip_feb",
                  "units" : "MBtu",
                  "value" : 0.0
               },
               {
                  "name" : "fuel_oil_no_2_ip_mar",
                  "units" : "MBtu",
                  "value" : 0.0
               },
               {
                  "name" : "fuel_oil_no_2_ip_apr",
                  "units" : "MBtu",
                  "value" : 0.0
               },
               {
                  "name" : "fuel_oil_no_2_ip_may",
                  "units" : "MBtu",
                  "value" : 0.0
               },
               {
                  "name" : "fuel_oil_no_2_ip_jun",
                  "units" : "MBtu",
                  "value" : 0.0
               },
               {
                  "name" : "fuel_oil_no_2_ip_jul",
                  "units" : "MBtu",
                  "value" : 0.0
               },
               {
                  "name" : "fuel_oil_no_2_ip_aug",
                  "units" : "MBtu",
                  "value" : 0.0
               },
               {
                  "name" : "fuel_oil_no_2_ip_sep",
                  "units" : "MBtu",
                  "value" : 0.0
               },
               {
                  "name" : "fuel_oil_no_2_ip_oct",
                  "units" : "MBtu",
                  "value" : 0.0
               },
               {
[...]
                  "name" : "diesel_ip_oct",
                  "units" : "MBtu",
                  "value" : 0.0
               },
               {
                  "name" : "diesel_ip_nov",
                  "units" : "MBtu",
                  "value" : 0.0
               },
               {
                  "name" : "diesel_ip_dec",
                  "units" : "MBtu",
                  "value" : 0.0
               },
               {
                  "name" : "gasoline_heating_ip",
                  "units" : "MBtu",
                  "value" : 0.0
               },
               {
                  "name" : "gasoline_cooling_ip",
                  "units" : "MBtu",
                  "value" : 0.0
               },
               {
                  "name" : "gasoline_interior_lighting_ip",
                  "units" : "MBtu",
                  "value" : 0.0
               },
               {
                  "name" : "gasoline_exterior_lighting_ip",
                  "units" : "MBtu",
                  "value" : 0.0
               },
               {
                  "name" : "gasoline_interior_equipment_ip",
                  "units" : "MBtu",
                  "value" : 0.0
               },
               {
                  "name" : "gasoline_exterior_equipment_ip",
                  "units" : "MBtu",
                  "value" : 0.0
               },
               {
                  "name" : "gasoline_fans_ip",
                  "units" : "MBtu",
                  "value" : 0.0
               },
               {
                  "name" : "gasoline_pumps_ip",
                  "units" : "MBtu",
                  "value" : 0.0
               },
               {
                  "name" : "gasoline_heat_rejection_ip",
                  "units" : "MBtu",
                  "value" : 0.0
               },
               {
                  "name" : "gasoline_humidification_ip",
                  "units" : "MBtu",
                  "value" : 0.0
               },
               {
                  "name" : "gasoline_heat_recovery_ip",
                  "units" : "MBtu",
                  "value" : 0.0
               },
               {
                  "name" : "gasoline_water_systems_ip",
                  "units" : "MBtu",
                  "value" : 0.0
               },
               {
                  "name" : "gasoline_refrigeration_ip",
                  "units" : "MBtu",
                  "value" : 0.0
               },
               {
                  "name" : "gasoline_generators_ip",
                  "units" : "MBtu",
                  "value" : 0.0
               },
               {
                  "name" : "gasoline_ip",
                  "units" : "MBtu",
                  "value" : 0.0
               },
               {
                  "name" : "gasoline_ip_jan",
                  "units" : "MBtu",
                  "value" : 0.0
               },
               {
                  "name" : "gasoline_ip_feb",
                  "units" : "MBtu",
                  "value" : 0.0
               },
               {
                  "name" : "gasoline_ip_mar",
                  "units" : "MBtu",
                  "value" : 0.0
               },
               {
                  "name" : "gasoline_ip_apr",
                  "units" : "MBtu",
                  "value" : 0.0
               },
               {
                  "name" : "gasoline_ip_may",
                  "units" : "MBtu",
                  "value" : 0.0
               },
               {
                  "name" : "gasoline_ip_jun",
                  "units" : "MBtu",
                  "value" : 0.0
               },
               {
                  "name" : "gasoline_ip_jul",
                  "units" : "MBtu",
                  "value" : 0.0
               },
               {
                  "name" : "gasoline_ip_aug",
                  "units" : "MBtu",
                  "value" : 0.0
               },
               {
                  "name" : "gasoline_ip_sep",
                  "units" : "MBtu",
                  "value" : 0.0
               },
               {
                  "name" : "gasoline_ip_oct",
                  "units" : "MBtu",
                  "value" : 0.0
               },
               {
                  "name" : "gasoline_ip_nov",
                  "units" : "MBtu",
                  "value" : 0.0
               },
               {
                  "name" : "gasoline_ip_dec",
                  "units" : "MBtu",
                  "value" : 0.0
               },
               {
                  "name" : "other_fuel_1_heating_ip",
                  "units" : "MBtu",
                  "value" : 0.0
               },
               {
                  "name" : "other_fuel_1_cooling_ip",
                  "units" : "MBtu",
                  "value" : 0.0
               },
               {
                  "name" : "other_fuel_1_interior_lighting_ip",
                  "units" : "MBtu",
                  "value" : 0.0
               },
               {
                  "name" : "other_fuel_1_exterior_lighting_ip",
                  "units" : "MBtu",
                  "value" : 0.0
               },
               {
                  "name" : "other_fuel_1_interior_equipment_ip",
                  "units" : "MBtu",
                  "value" : 0.0
               },
               {
                  "name" : "other_fuel_1_exterior_equipment_ip",
                  "units" : "MBtu",
                  "value" : 0.0
               },
               {
                  "name" : "other_fuel_1_fans_ip",
                  "units" : "MBtu",
                  "value" : 0.0
               },
               {
                  "name" : "other_fuel_1_pumps_ip",
                  "units" : "MBtu",
                  "value" : 0.0
               },
               {
                  "name" : "other_fuel_1_heat_rejection_ip",
                  "units" : "MBtu",
                  "value" : 0.0
               },
               {
                  "name" : "other_fuel_1_humidification_ip",
                  "units" : "MBtu",
                  "value" : 0.0
               },
               {
                  "name" : "other_fuel_1_heat_recovery_ip",
                  "units" : "MBtu",
                  "value" : 0.0
               },
               {
                  "name" : "other_fuel_1_water_systems_ip",
                  "units" : "MBtu",
                  "value" : 0.0
               },
               {
                  "name" : "other_fuel_1_refrigeration_ip",
                  "units" : "MBtu",
                  "value" : 0.0
               },
               {
                  "name" : "other_fuel_1_generators_ip",
                  "units" : "MBtu",
                  "value" : 0.0
               },
               {
                  "name" : "other_fuel_1_ip",
                  "units" : "MBtu",
                  "value" : 0.0
               },
               {
                  "name" : "other_fuel_1_ip_jan",
                  "units" : "MBtu",
                  "value" : 0.0
               },
               {
                  "name" : "other_fuel_1_ip_feb",
                  "units" : "MBtu",
                  "value" : 0.0
               },
               {
                  "name" : "other_fuel_1_ip_mar",
                  "units" : "MBtu",
                  "value" : 0.0
               },
               {
                  "name" : "other_fuel_1_ip_apr",
                  "units" : "MBtu",
                  "value" : 0.0
               },
               {
                  "name" : "other_fuel_1_ip_may",
                  "units" : "MBtu",
                  "value" : 0.0
               },
               {
                  "name" : "other_fuel_1_ip_jun",
                  "units" : "MBtu",
                  "value" : 0.0
               },
               {
                  "name" : "other_fuel_1_ip_jul",
                  "units" : "MBtu",
                  "value" : 0.0
               },
               {
                  "name" : "other_fuel_1_ip_aug",
                  "units" : "MBtu",
                  "value" : 0.0
               },
               {
                  "name" : "other_fuel_1_ip_sep",
                  "units" : "MBtu",
                  "value" : 0.0
               },
               {
                  "name" : "other_fuel_1_ip_oct",
                  "units" : "MBtu",
                  "value" : 0.0
               },
               {
                  "name" : "other_fuel_1_ip_nov",
                  "units" : "MBtu",
                  "value" : 0.0
               },
               {
                  "name" : "other_fuel_1_ip_dec",
                  "units" : "MBtu",
                  "value" : 0.0
               },
               {
                  "name" : "other_fuel_2_heating_ip",
                  "units" : "MBtu",
                  "value" : 0.0
               },
               {
                  "name" : "other_fuel_2_cooling_ip",
                  "units" : "MBtu",
                  "value" : 0.0
               },
               {
                  "name" : "other_fuel_2_interior_lighting_ip",
                  "units" : "MBtu",
                  "value" : 0.0
               },
               {
                  "name" : "other_fuel_2_exterior_lighting_ip",
                  "units" : "MBtu",
                  "value" : 0.0
               },
               {
                  "name" : "other_fuel_2_interior_equipment_ip",
                  "units" : "MBtu",
                  "value" : 0.0
               },
               {
                  "name" : "other_fuel_2_exterior_equipment_ip",
                  "units" : "MBtu",
                  "value" : 0.0
               },
               {
                  "name" : "other_fuel_2_fans_ip",
                  "units" : "MBtu",
                  "value" : 0.0
               },
               {
                  "name" : "other_fuel_2_pumps_ip",
                  "units" : "MBtu",
                  "value" : 0.0
               },
               {
                  "name" : "other_fuel_2_heat_rejection_ip",
                  "units" : "MBtu",
                  "value" : 0.0
               },
               {
                  "name" : "other_fuel_2_humidification_ip",
                  "units" : "MBtu",
                  "value" : 0.0
               },
               {
                  "name" : "other_fuel_2_heat_recovery_ip",
                  "units" : "MBtu",
                  "value" : 0.0
               },
               {
                  "name" : "other_fuel_2_water_systems_ip",
                  "units" : "MBtu",
                  "value" : 0.0
               },
               {
                  "name" : "other_fuel_2_refrigeration_ip",
                  "units" : "MBtu",
                  "value" : 0.0
               },
               {
                  "name" : "other_fuel_2_generators_ip",
                  "units" : "MBtu",
                  "value" : 0.0
               },
               {
                  "name" : "other_fuel_2_ip",
                  "units" : "MBtu",
                  "value" : 0.0
               },
               {
                  "name" : "other_fuel_2_ip_jan",
                  "units" : "MBtu",
                  "value" : 0.0
               },
               {
                  "name" : "other_fuel_2_ip_feb",
                  "units" : "MBtu",
                  "value" : 0.0
               },
               {
                  "name" : "other_fuel_2_ip_mar",
                  "units" : "MBtu",
                  "value" : 0.0
               },
               {
                  "name" : "other_fuel_2_ip_apr",
                  "units" : "MBtu",
                  "value" : 0.0
               },
               {
                  "name" : "other_fuel_2_ip_may",
                  "units" : "MBtu",
                  "value" : 0.0
               },
               {
                  "name" : "other_fuel_2_ip_jun",
                  "units" : "MBtu",
                  "value" : 0.0
               },
               {
                  "name" : "other_fuel_2_ip_jul",
                  "units" : "MBtu",
                  "value" : 0.0
               },
               {
                  "name" : "other_fuel_2_ip_aug",
                  "units" : "MBtu",
                  "value" : 0.0
               },
               {
                  "name" : "other_fuel_2_ip_sep",
                  "units" : "MBtu",
                  "value" : 0.0
               },
               {
                  "name" : "other_fuel_2_ip_oct",
                  "units" : "MBtu",
                  "value" : 0.0
               },
               {
                  "name" : "other_fuel_2_ip_nov",
                  "units" : "MBtu",
                  "value" : 0.0
               },
               {
                  "name" : "other_fuel_2_ip_dec",
                  "units" : "MBtu",
                  "value" : 0.0
               },
               {
                  "name" : "typical_iead_roof_highly_reflective_r_20_83",
                  "units" : "ft^2",
                  "value" : 387637.99999999837
               },
               {
                  "name" : "typical_insulated_exterior_mass_wall_r_8_13",
                  "units" : "ft^2",
                  "value" : 22138.882836840068
               },
               {
                  "name" : "u_0_62_shgc_0_25_dbl_ref_c_h_clr_6_mm_6_mm_air",
                  "units" : "ft^2",
                  "value" : 94.114099189145108
               },
               {
                  "name" : "gross_window_wall_ratio",
                  "units" : "%",
                  "value" : 33.0
               },
               {
                  "name" : "gross_window_wall_ratio_conditioned",
                  "units" : "%",
                  "value" : 33.0
               },
               {
                  "name" : "skylight_roof_ratio",
                  "units" : "%",
                  "value" : 0.0
               },
               {
                  "name" : "space_type_medium_office_whole_building_md_office_90_1_2007",
                  "units" : "ft^2",
                  "value" : 387637.99999999837
               },
               {
                  "name" : "medium_office_whole_building_md_office_90_1_2007_service_water_use_6_14_gpm_at_140_f",
                  "units" : "gal/min",
                  "value" : 6.1440348326173577
               },
               {
                  "name" : "zone_max_hours_over_70_rh",
                  "units" : "hr",
                  "value" : 240.0
               },
               {
                  "name" : "zone_max_hours_over_55_rh",
                  "units" : "hr",
                  "value" : 3217.0
               },
               {
                  "name" : "num_zones_x_hours_over_70",
                  "units" : "zones",
                  "value" : 8
               },
               {
                  "name" : "num_zones_x_hours_over_55",
                  "units" : "zones",
                  "value" : 9
               },
               {
                  "name" : "inflation_approach",
                  "value" : "Constant Dollar"
               },
               {
                  "name" : "analysis_length",
                  "units" : "yrs",
                  "value" : 25
               },
               {
                  "name" : "number_of_measures_with_warnings",
                  "value" : 0
               },
               {
                  "name" : "number_warnings",
                  "value" : 0
               },
               {
                  "name" : "annual_peak_electric_demand",
                  "units" : "kW",
                  "value" : 740.43895999999995
               },
               {
                  "name" : "first_year_capital_cost",
                  "units" : "$",
                  "value" : 0.0
               },
               {
                  "name" : "annual_utility_cost",
                  "units" : "$",
                  "value" : 144434.66
               },
               {
                  "name" : "total_lifecycle_cost",
                  "units" : "$",
                  "value" : 2515062.0600000001
               }
            ],
            "step_warnings" : 
            [
               "Annual Overview section failed and was skipped because: Optional not initialized. Detail on error follows.",
               "/Users/llin/Documents/repo/edv-experiment-1/.bundle/install/ruby/2.5.0/bundler/gems/openstudio-common-measures-gem-994b0808a412/lib/measures/openstudio_results/measure.rb:285:in `eval'\n/Users/llin/Documents/repo/edv-experiment-1/.bundle/install/ruby/2.5.0/bundler/gems/openstudio-common-measures-gem-994b0808a412/lib/measures/openstudio_results/resources/os_lib_reporting.rb:540:in `block in output_data_end_use_table'\n/Users/llin/Documents/repo/edv-experiment-1/.bundle/install/ruby/2.5.0/bundler/gems/openstudio-common-measures-gem-994b0808a412/lib/measures/openstudio_results/resources/os_lib_reporting.rb:530:in `each'\n/Users/llin/Documents/repo/edv-experiment-1/.bundle/install/ruby/2.5.0/bundler/gems/openstudio-common-measures-gem-994b0808a412/lib/measures/openstudio_results/resources/os_lib_reporting.rb:530:in `output_data_end_use_table'\n/Users/llin/Documents/repo/edv-experiment-1/.bundle/install/ruby/2.5.0/bundler/gems/openstudio-common-measures-gem-994b0808a412/lib/measures/openstudio_results/resources/os_lib_reporting.rb:258:in `annual_overview_section'\n(eval):1:in `block in run'\n/Users/llin/Documents/repo/edv-experiment-1/.bundle/install/ruby/2.5.0/bundler/gems/openstudio-common-measures-gem-994b0808a412/lib/measures/openstudio_results/measure.rb:285:in `eval'\n/Users/llin/Documents/repo/edv-experiment-1/.bundle/install/ruby/2.5.0/bundler/gems/openstudio-common-measures-gem-994b0808a412/lib/measures/openstudio_results/measure.rb:285:in `block in run'\n/Users/llin/Documents/repo/edv-experiment-1/.bundle/install/ruby/2.5.0/bundler/gems/openstudio-common-measures-gem-994b0808a412/lib/measures/openstudio_results/measure.rb:282:in `each'\n/Users/llin/Documents/repo/edv-experiment-1/.bundle/install/ruby/2.5.0/bundler/gems/openstudio-common-measures-gem-994b0808a412/lib/measures/openstudio_results/measure.rb:282:in `run'\n/Users/llin/Documents/repo/edv-experiment-1/.bundle/install/ruby/2.5.0/gems/openstudio-workflow-2.0.1/lib/openstudio/workflow/util/measure.rb:514:in `apply_measure'\n/Users/llin/Documents/repo/edv-experiment-1/.bundle/install/ruby/2.5.0/gems/openstudio-workflow-2.0.1/lib/openstudio/workflow/util/measure.rb:109:in `block in apply_measures'\n/Users/llin/Documents/repo/edv-experiment-1/.bundle/install/ruby/2.5.0/gems/openstudio-workflow-2.0.1/lib/openstudio/workflow/util/measure.rb:67:in `each_index'\n/Users/llin/Documents/repo/edv-experiment-1/.bundle/install/ruby/2.5.0/gems/openstudio-workflow-2.0.1/lib/openstudio/workflow/util/measure.rb:67:in `apply_measures'\n/Users/llin/Documents/repo/edv-experiment-1/.bundle/install/ruby/2.5.0/gems/openstudio-workflow-2.0.1/lib/openstudio/workflow/jobs/run_reporting_measures.rb:105:in `perform'\n/Users/llin/Documents/repo/edv-experiment-1/.bundle/install/ruby/2.5.0/gems/openstudio-workflow-2.0.1/lib/openstudio/workflow/run.rb:292:in `step'\n/Users/llin/Documents/repo/edv-experiment-1/.bundle/install/ruby/2.5.0/gems/openstudio-workflow-2.0.1/lib/openstudio/workflow/run.rb:234:in `run'\n:/openstudio_cli.rb:971:in `execute'\n:/openstudio_cli.rb:761:in `execute'\n:/openstudio_cli.rb:1755:in `<main>'\neval:175:in `eval'\neval:175:in `require_embedded_absolute'\neval:160:in `block in require_embedded'\neval:154:in `each'\neval:154:in `require_embedded'\neval:113:in `require'\neval:3:in `<main>'"
            ]
         }
      }
   ],
   "updated_at" : "20210625T145333Z",
   "weather_file" : null
}