Program Version,EnergyPlus, Version 9.4.0-998c4b761e, YMD=2021.06.25 08:52,
   ************* Beginning Zone Sizing Calculations
   ** Warning ** Weather file location will be used rather than entered (IDF) Location object.
   **   ~~~   ** ..Location object=CLIMATE ZONE 3_CA_USA
   **   ~~~   ** ..Weather File Location=Climate Zone 3 CA USA CTZRV2 WMO#=724930
   **   ~~~   ** ..due to location differences, Latitude difference=[9.18] degrees, Longitude difference=[40.82] degrees.
   **   ~~~   ** ..Time Zone difference=[0.0] hour(s), Elevation difference=[0.00] percent, [0.00] meters.
   ** Warning ** ProcessScheduleInput: DecodeHHMMField, Invalid "until" field value is not a multiple of the minutes for each timestep: 08:09
   **   ~~~   ** Other errors may result. Occurred in Day Schedule=ZONE SMALLOFFICE WHOLEBUILDING - SM OFFICE A  - STORY GROUND PSZ-AC OCC SCH DEFAULT
   ** Warning ** ProcessScheduleInput: DecodeHHMMField, Invalid "until" field value is not a multiple of the minutes for each timestep: 22:50
   **   ~~~   ** Other errors may result. Occurred in Day Schedule=ZONE SMALLOFFICE WHOLEBUILDING - SM OFFICE A  - STORY GROUND PSZ-AC OCC SCH DEFAULT
   ** Warning ** ProcessScheduleInput: DecodeHHMMField, Invalid "until" field value is not a multiple of the minutes for each timestep: 23:40
   **   ~~~   ** Other errors may result. Occurred in Day Schedule=ZONE SMALLOFFICE WHOLEBUILDING - SM OFFICE A  - STORY GROUND PSZ-AC OCC SCH SATURDAY
   ** Warning ** ProcessScheduleInput: DecodeHHMMField, Invalid "until" field value is not a multiple of the minutes for each timestep: 08:09
   **   ~~~   ** Other errors may result. Occurred in Day Schedule=ZONE SMALLOFFICE WHOLEBUILDING - SM OFFICE A END_A - STORY GROUND PSZ-AC OCC SCH DEFAULT
   ** Warning ** ProcessScheduleInput: DecodeHHMMField, Invalid "until" field value is not a multiple of the minutes for each timestep: 22:50
   **   ~~~   ** Other errors may result. Occurred in Day Schedule=ZONE SMALLOFFICE WHOLEBUILDING - SM OFFICE A END_A - STORY GROUND PSZ-AC OCC SCH DEFAULT
   ** Warning ** ProcessScheduleInput: DecodeHHMMField, Invalid "until" field value is not a multiple of the minutes for each timestep: 23:40
   **   ~~~   ** Other errors may result. Occurred in Day Schedule=ZONE SMALLOFFICE WHOLEBUILDING - SM OFFICE A END_A - STORY GROUND PSZ-AC OCC SCH SATURDAY
   ** Warning ** ProcessScheduleInput: DecodeHHMMField, Invalid "until" field value is not a multiple of the minutes for each timestep: 08:09
   **   ~~~   ** Other errors may result. Occurred in Day Schedule=ZONE SMALLOFFICE WHOLEBUILDING - SM OFFICE A END_B - STORY GROUND PSZ-AC OCC SCH DEFAULT
   ** Warning ** ProcessScheduleInput: DecodeHHMMField, Invalid "until" field value is not a multiple of the minutes for each timestep: 22:50
   **   ~~~   ** Other errors may result. Occurred in Day Schedule=ZONE SMALLOFFICE WHOLEBUILDING - SM OFFICE A END_B - STORY GROUND PSZ-AC OCC SCH DEFAULT
   ** Warning ** ProcessScheduleInput: DecodeHHMMField, Invalid "until" field value is not a multiple of the minutes for each timestep: 23:40
   **   ~~~   ** Other errors may result. Occurred in Day Schedule=ZONE SMALLOFFICE WHOLEBUILDING - SM OFFICE A END_B - STORY GROUND PSZ-AC OCC SCH SATURDAY
   ** Warning ** ProcessScheduleInput: DecodeHHMMField, Invalid "until" field value is not a multiple of the minutes for each timestep: 08:09
   **   ~~~   ** Other errors may result. Occurred in Day Schedule=ZONE SMALLOFFICE WHOLEBUILDING - SM OFFICE B  - STORY GROUND PSZ-AC OCC SCH DEFAULT
   ** Warning ** ProcessScheduleInput: DecodeHHMMField, Invalid "until" field value is not a multiple of the minutes for each timestep: 22:50
   **   ~~~   ** Other errors may result. Occurred in Day Schedule=ZONE SMALLOFFICE WHOLEBUILDING - SM OFFICE B  - STORY GROUND PSZ-AC OCC SCH DEFAULT
   ** Warning ** ProcessScheduleInput: DecodeHHMMField, Invalid "until" field value is not a multiple of the minutes for each timestep: 23:40
   **   ~~~   ** Other errors may result. Occurred in Day Schedule=ZONE SMALLOFFICE WHOLEBUILDING - SM OFFICE B  - STORY GROUND PSZ-AC OCC SCH SATURDAY
   ** Warning ** ProcessScheduleInput: DecodeHHMMField, Invalid "until" field value is not a multiple of the minutes for each timestep: 08:09
   **   ~~~   ** Other errors may result. Occurred in Day Schedule=ZONE SMALLOFFICE WHOLEBUILDING - SM OFFICE B END_A - STORY GROUND PSZ-AC OCC SCH DEFAULT
   ** Warning ** ProcessScheduleInput: DecodeHHMMField, Invalid "until" field value is not a multiple of the minutes for each timestep: 22:50
   **   ~~~   ** Other errors may result. Occurred in Day Schedule=ZONE SMALLOFFICE WHOLEBUILDING - SM OFFICE B END_A - STORY GROUND PSZ-AC OCC SCH DEFAULT
   ** Warning ** ProcessScheduleInput: DecodeHHMMField, Invalid "until" field value is not a multiple of the minutes for each timestep: 23:40
   **   ~~~   ** Other errors may result. Occurred in Day Schedule=ZONE SMALLOFFICE WHOLEBUILDING - SM OFFICE B END_A - STORY GROUND PSZ-AC OCC SCH SATURDAY
   ** Warning ** ProcessScheduleInput: DecodeHHMMField, Invalid "until" field value is not a multiple of the minutes for each timestep: 08:09
   **   ~~~   ** Other errors may result. Occurred in Day Schedule=ZONE SMALLOFFICE WHOLEBUILDING - SM OFFICE B END_B - STORY GROUND PSZ-AC OCC SCH DEFAULT
   ** Warning ** ProcessScheduleInput: DecodeHHMMField, Invalid "until" field value is not a multiple of the minutes for each timestep: 22:50
   **   ~~~   ** Other errors may result. Occurred in Day Schedule=ZONE SMALLOFFICE WHOLEBUILDING - SM OFFICE B END_B - STORY GROUND PSZ-AC OCC SCH DEFAULT
   ** Warning ** ProcessScheduleInput: DecodeHHMMField, Invalid "until" field value is not a multiple of the minutes for each timestep: 23:40
   **   ~~~   ** Other errors may result. Occurred in Day Schedule=ZONE SMALLOFFICE WHOLEBUILDING - SM OFFICE B END_B - STORY GROUND PSZ-AC OCC SCH SATURDAY
   ** Warning ** ProcessScheduleInput: DecodeHHMMField, Invalid "until" field value is not a multiple of the minutes for each timestep: 08:09
   **   ~~~   ** Other errors may result. Occurred in Day Schedule=ZONE SMALLOFFICE WHOLEBUILDING - SM OFFICE C  - STORY GROUND PSZ-AC OCC SCH DEFAULT
   ** Warning ** ProcessScheduleInput: DecodeHHMMField, Invalid "until" field value is not a multiple of the minutes for each timestep: 22:50
   **   ~~~   ** Other errors may result. Occurred in Day Schedule=ZONE SMALLOFFICE WHOLEBUILDING - SM OFFICE C  - STORY GROUND PSZ-AC OCC SCH DEFAULT
   ** Warning ** ProcessScheduleInput: DecodeHHMMField, Invalid "until" field value is not a multiple of the minutes for each timestep: 23:40
   **   ~~~   ** Other errors may result. Occurred in Day Schedule=ZONE SMALLOFFICE WHOLEBUILDING - SM OFFICE C  - STORY GROUND PSZ-AC OCC SCH SATURDAY
   ** Warning ** ProcessScheduleInput: DecodeHHMMField, Invalid "until" field value is not a multiple of the minutes for each timestep: 08:09
   **   ~~~   ** Other errors may result. Occurred in Day Schedule=ZONE SMALLOFFICE WHOLEBUILDING - SM OFFICE C END_A - STORY GROUND PSZ-AC OCC SCH DEFAULT
   ** Warning ** ProcessScheduleInput: DecodeHHMMField, Invalid "until" field value is not a multiple of the minutes for each timestep: 22:50
   **   ~~~   ** Other errors may result. Occurred in Day Schedule=ZONE SMALLOFFICE WHOLEBUILDING - SM OFFICE C END_A - STORY GROUND PSZ-AC OCC SCH DEFAULT
   ** Warning ** ProcessScheduleInput: DecodeHHMMField, Invalid "until" field value is not a multiple of the minutes for each timestep: 23:40
   **   ~~~   ** Other errors may result. Occurred in Day Schedule=ZONE SMALLOFFICE WHOLEBUILDING - SM OFFICE C END_A - STORY GROUND PSZ-AC OCC SCH SATURDAY
   ** Warning ** ProcessScheduleInput: DecodeHHMMField, Invalid "until" field value is not a multiple of the minutes for each timestep: 08:09
   **   ~~~   ** Other errors may result. Occurred in Day Schedule=ZONE SMALLOFFICE WHOLEBUILDING - SM OFFICE C END_B - STORY GROUND PSZ-AC OCC SCH DEFAULT
   ** Warning ** ProcessScheduleInput: DecodeHHMMField, Invalid "until" field value is not a multiple of the minutes for each timestep: 22:50
   **   ~~~   ** Other errors may result. Occurred in Day Schedule=ZONE SMALLOFFICE WHOLEBUILDING - SM OFFICE C END_B - STORY GROUND PSZ-AC OCC SCH DEFAULT
   ** Warning ** ProcessScheduleInput: DecodeHHMMField, Invalid "until" field value is not a multiple of the minutes for each timestep: 23:40
   **   ~~~   ** Other errors may result. Occurred in Day Schedule=ZONE SMALLOFFICE WHOLEBUILDING - SM OFFICE C END_B - STORY GROUND PSZ-AC OCC SCH SATURDAY
   ** Warning ** ProcessScheduleInput: Schedule:Compact="TWOSEASONSCHEDULE", Blank Schedule Type Limits Name input -- will not be validated.
   ** Warning ** ProcessScheduleInput: Schedule:Compact="TIMEOFDAYSCHEDULE", Blank Schedule Type Limits Name input -- will not be validated.
   ** Warning ** ProcessScheduleInput: Schedule:Constant="ALWAYS OFF DISCRETE", Blank Schedule Type Limits Name input -- will not be validated.
   ** Warning ** ProcessScheduleInput: Schedule:Constant="ALWAYS ON CONTINUOUS", Blank Schedule Type Limits Name input -- will not be validated.
   ** Warning ** GetHTSurfaceData: Surfaces with interface to Ground found but no "Ground Temperatures" were input.
   **   ~~~   ** Found first in surface=SURFACE 19
   **   ~~~   ** Defaults, constant throughout the year of (18.0) will be used.
   ** Warning ** CheckUsedConstructions: There are 11 nominally unused constructions in input.
   **   ~~~   ** For explicit details on each unused construction, use Output:Diagnostics,DisplayExtraWarnings;
   ** Warning ** GetInternalHeatGains: People Combination of ZoneList and Object Name generate a name too long.
   **   ~~~   ** Object Name="SMALLOFFICE WHOLEBUILDING - SM OFFICE PEOPLE".
   **   ~~~   ** ZoneList/Zone Name="ZONE SMALLOFFICE WHOLEBUILDING - SM OFFICE A  - STORY GROUND".
   **   ~~~   ** Item length=[104] > Maximum Length=[100]. You may need to shorten the names.
   **   ~~~   ** Shortening the Object Name by [10] characters will assure uniqueness for this ZoneList.
   **   ~~~   ** name that will be used (may be needed in reporting)="ZONE SMALLOFFICE WHOLEBUILDING - SM OFFICE A  - STORY GROUND SMALLOFFICE WHOLEBUILDING - SM OFFICE PEOPLE".
   ** Warning ** GetInternalHeatGains: People="SMALLOFFICE WHOLEBUILDING - SM OFFICE PEOPLE" has comfort related schedules but no thermal comfort model selected.
   **   ~~~   ** If schedules are specified for air velocity, clothing insulation, and/or work efficiency but no thermal comfort
   **   ~~~   ** thermal comfort model is selected, the schedules will be listed as unused schedules in the .err file.
   **   ~~~   ** To avoid these errors, select a valid thermal comfort model or eliminate these schedules in the PEOPLE input.
   ** Warning ** GetInternalHeatGains: People Combination of ZoneList and Object Name generate a name too long.
   **   ~~~   ** Object Name="SMALLOFFICE WHOLEBUILDING - SM OFFICE PEOPLE".
   **   ~~~   ** ZoneList/Zone Name="ZONE SMALLOFFICE WHOLEBUILDING - SM OFFICE A END_A - STORY GROUND".
   **   ~~~   ** Item length=[109] > Maximum Length=[100]. You may need to shorten the names.
   **   ~~~   ** Shortening the Object Name by [10] characters will assure uniqueness for this ZoneList.
   **   ~~~   ** name that will be used (may be needed in reporting)="ZONE SMALLOFFICE WHOLEBUILDING - SM OFFICE A END_A - STORY GROUND SMALLOFFICE WHOLEBUILDING - SM OFFICE PEOPLE".
   ** Warning ** GetInternalHeatGains: People="SMALLOFFICE WHOLEBUILDING - SM OFFICE PEOPLE" has comfort related schedules but no thermal comfort model selected.
   **   ~~~   ** If schedules are specified for air velocity, clothing insulation, and/or work efficiency but no thermal comfort
   **   ~~~   ** thermal comfort model is selected, the schedules will be listed as unused schedules in the .err file.
   **   ~~~   ** To avoid these errors, select a valid thermal comfort model or eliminate these schedules in the PEOPLE input.
   ** Warning ** GetInternalHeatGains: People Combination of ZoneList and Object Name generate a name too long.
   **   ~~~   ** Object Name="SMALLOFFICE WHOLEBUILDING - SM OFFICE PEOPLE".
   **   ~~~   ** ZoneList/Zone Name="ZONE SMALLOFFICE WHOLEBUILDING - SM OFFICE A END_B - STORY GROUND".
   **   ~~~   ** Item length=[109] > Maximum Length=[100]. You may need to shorten the names.
   **   ~~~   ** Shortening the Object Name by [10] characters will assure uniqueness for this ZoneList.
   **   ~~~   ** name that will be used (may be needed in reporting)="ZONE SMALLOFFICE WHOLEBUILDING - SM OFFICE A END_B - STORY GROUND SMALLOFFICE WHOLEBUILDING - SM OFFICE PEOPLE".
   ** Warning ** GetInternalHeatGains: People="SMALLOFFICE WHOLEBUILDING - SM OFFICE PEOPLE" has comfort related schedules but no thermal comfort model selected.
   **   ~~~   ** If schedules are specified for air velocity, clothing insulation, and/or work efficiency but no thermal comfort
   **   ~~~   ** thermal comfort model is selected, the schedules will be listed as unused schedules in the .err file.
   **   ~~~   ** To avoid these errors, select a valid thermal comfort model or eliminate these schedules in the PEOPLE input.
   ** Warning ** GetInternalHeatGains: People Combination of ZoneList and Object Name generate a name too long.
   **   ~~~   ** Object Name="SMALLOFFICE WHOLEBUILDING - SM OFFICE PEOPLE".
   **   ~~~   ** ZoneList/Zone Name="ZONE SMALLOFFICE WHOLEBUILDING - SM OFFICE B  - STORY GROUND".
   **   ~~~   ** Item length=[104] > Maximum Length=[100]. You may need to shorten the names.
   **   ~~~   ** Shortening the Object Name by [10] characters will assure uniqueness for this ZoneList.
   **   ~~~   ** name that will be used (may be needed in reporting)="ZONE SMALLOFFICE WHOLEBUILDING - SM OFFICE B  - STORY GROUND SMALLOFFICE WHOLEBUILDING - SM OFFICE PEOPLE".
   ** Warning ** GetInternalHeatGains: People="SMALLOFFICE WHOLEBUILDING - SM OFFICE PEOPLE" has comfort related schedules but no thermal comfort model selected.
   **   ~~~   ** If schedules are specified for air velocity, clothing insulation, and/or work efficiency but no thermal comfort
   **   ~~~   ** thermal comfort model is selected, the schedules will be listed as unused schedules in the .err file.
   **   ~~~   ** To avoid these errors, select a valid thermal comfort model or eliminate these schedules in the PEOPLE input.
   ** Warning ** GetInternalHeatGains: People Combination of ZoneList and Object Name generate a name too long.
   **   ~~~   ** Object Name="SMALLOFFICE WHOLEBUILDING - SM OFFICE PEOPLE".
   **   ~~~   ** ZoneList/Zone Name="ZONE SMALLOFFICE WHOLEBUILDING - SM OFFICE B END_A - STORY GROUND".
   **   ~~~   ** Item length=[109] > Maximum Length=[100]. You may need to shorten the names.
   **   ~~~   ** Shortening the Object Name by [10] characters will assure uniqueness for this ZoneList.
   **   ~~~   ** name that will be used (may be needed in reporting)="ZONE SMALLOFFICE WHOLEBUILDING - SM OFFICE B END_A - STORY GROUND SMALLOFFICE WHOLEBUILDING - SM OFFICE PEOPLE".
   ** Warning ** GetInternalHeatGains: People="SMALLOFFICE WHOLEBUILDING - SM OFFICE PEOPLE" has comfort related schedules but no thermal comfort model selected.
   **   ~~~   ** If schedules are specified for air velocity, clothing insulation, and/or work efficiency but no thermal comfort
   **   ~~~   ** thermal comfort model is selected, the schedules will be listed as unused schedules in the .err file.
   **   ~~~   ** To avoid these errors, select a valid thermal comfort model or eliminate these schedules in the PEOPLE input.
   ** Warning ** GetInternalHeatGains: People Combination of ZoneList and Object Name generate a name too long.
   **   ~~~   ** Object Name="SMALLOFFICE WHOLEBUILDING - SM OFFICE PEOPLE".
   **   ~~~   ** ZoneList/Zone Name="ZONE SMALLOFFICE WHOLEBUILDING - SM OFFICE B END_B - STORY GROUND".
   **   ~~~   ** Item length=[109] > Maximum Length=[100]. You may need to shorten the names.
   **   ~~~   ** Shortening the Object Name by [10] characters will assure uniqueness for this ZoneList.
   **   ~~~   ** name that will be used (may be needed in reporting)="ZONE SMALLOFFICE WHOLEBUILDING - SM OFFICE B END_B - STORY GROUND SMALLOFFICE WHOLEBUILDING - SM OFFICE PEOPLE".
   ** Warning ** GetInternalHeatGains: People="SMALLOFFICE WHOLEBUILDING - SM OFFICE PEOPLE" has comfort related schedules but no thermal comfort model selected.
   **   ~~~   ** If schedules are specified for air velocity, clothing insulation, and/or work efficiency but no thermal comfort
   **   ~~~   ** thermal comfort model is selected, the schedules will be listed as unused schedules in the .err file.
   **   ~~~   ** To avoid these errors, select a valid thermal comfort model or eliminate these schedules in the PEOPLE input.
   ** Warning ** GetInternalHeatGains: People Combination of ZoneList and Object Name generate a name too long.
   **   ~~~   ** Object Name="SMALLOFFICE WHOLEBUILDING - SM OFFICE PEOPLE".
   **   ~~~   ** ZoneList/Zone Name="ZONE SMALLOFFICE WHOLEBUILDING - SM OFFICE C  - STORY GROUND".
   **   ~~~   ** Item length=[104] > Maximum Length=[100]. You may need to shorten the names.
   **   ~~~   ** Shortening the Object Name by [10] characters will assure uniqueness for this ZoneList.
   **   ~~~   ** name that will be used (may be needed in reporting)="ZONE SMALLOFFICE WHOLEBUILDING - SM OFFICE C  - STORY GROUND SMALLOFFICE WHOLEBUILDING - SM OFFICE PEOPLE".
   ** Warning ** GetInternalHeatGains: People="SMALLOFFICE WHOLEBUILDING - SM OFFICE PEOPLE" has comfort related schedules but no thermal comfort model selected.
   **   ~~~   ** If schedules are specified for air velocity, clothing insulation, and/or work efficiency but no thermal comfort
   **   ~~~   ** thermal comfort model is selected, the schedules will be listed as unused schedules in the .err file.
   **   ~~~   ** To avoid these errors, select a valid thermal comfort model or eliminate these schedules in the PEOPLE input.
   ** Warning ** GetInternalHeatGains: People Combination of ZoneList and Object Name generate a name too long.
   **   ~~~   ** Object Name="SMALLOFFICE WHOLEBUILDING - SM OFFICE PEOPLE".
   **   ~~~   ** ZoneList/Zone Name="ZONE SMALLOFFICE WHOLEBUILDING - SM OFFICE C END_A - STORY GROUND".
   **   ~~~   ** Item length=[109] > Maximum Length=[100]. You may need to shorten the names.
   **   ~~~   ** Shortening the Object Name by [10] characters will assure uniqueness for this ZoneList.
   **   ~~~   ** name that will be used (may be needed in reporting)="ZONE SMALLOFFICE WHOLEBUILDING - SM OFFICE C END_A - STORY GROUND SMALLOFFICE WHOLEBUILDING - SM OFFICE PEOPLE".
   ** Warning ** GetInternalHeatGains: People="SMALLOFFICE WHOLEBUILDING - SM OFFICE PEOPLE" has comfort related schedules but no thermal comfort model selected.
   **   ~~~   ** If schedules are specified for air velocity, clothing insulation, and/or work efficiency but no thermal comfort
   **   ~~~   ** thermal comfort model is selected, the schedules will be listed as unused schedules in the .err file.
   **   ~~~   ** To avoid these errors, select a valid thermal comfort model or eliminate these schedules in the PEOPLE input.
   ** Warning ** GetInternalHeatGains: People Combination of ZoneList and Object Name generate a name too long.
   **   ~~~   ** Object Name="SMALLOFFICE WHOLEBUILDING - SM OFFICE PEOPLE".
   **   ~~~   ** ZoneList/Zone Name="ZONE SMALLOFFICE WHOLEBUILDING - SM OFFICE C END_B - STORY GROUND".
   **   ~~~   ** Item length=[109] > Maximum Length=[100]. You may need to shorten the names.
   **   ~~~   ** Shortening the Object Name by [10] characters will assure uniqueness for this ZoneList.
   **   ~~~   ** name that will be used (may be needed in reporting)="ZONE SMALLOFFICE WHOLEBUILDING - SM OFFICE C END_B - STORY GROUND SMALLOFFICE WHOLEBUILDING - SM OFFICE PEOPLE".
   ** Warning ** GetInternalHeatGains: People="SMALLOFFICE WHOLEBUILDING - SM OFFICE PEOPLE" has comfort related schedules but no thermal comfort model selected.
   **   ~~~   ** If schedules are specified for air velocity, clothing insulation, and/or work efficiency but no thermal comfort
   **   ~~~   ** thermal comfort model is selected, the schedules will be listed as unused schedules in the .err file.
   **   ~~~   ** To avoid these errors, select a valid thermal comfort model or eliminate these schedules in the PEOPLE input.
   ** Warning ** GetInternalHeatGains: Lights Combination of ZoneList and Object Name generate a name too long.
   **   ~~~   ** Object Name="SMALLOFFICE WHOLEBUILDING - SM OFFICE LIGHTS".
   **   ~~~   ** ZoneList/Zone Name="ZONE SMALLOFFICE WHOLEBUILDING - SM OFFICE A  - STORY GROUND".
   **   ~~~   ** Item length=[104] > Maximum Length=[100]. You may need to shorten the names.
   **   ~~~   ** Shortening the Object Name by [10] characters will assure uniqueness for this ZoneList.
   **   ~~~   ** name that will be used (may be needed in reporting)="ZONE SMALLOFFICE WHOLEBUILDING - SM OFFICE A  - STORY GROUND SMALLOFFICE WHOLEBUILDING - SM OFFICE LIGHTS".
   ** Warning ** GetInternalHeatGains: Lights Combination of ZoneList and Object Name generate a name too long.
   **   ~~~   ** Object Name="SMALLOFFICE WHOLEBUILDING - SM OFFICE LIGHTS".
   **   ~~~   ** ZoneList/Zone Name="ZONE SMALLOFFICE WHOLEBUILDING - SM OFFICE A END_A - STORY GROUND".
   **   ~~~   ** Item length=[109] > Maximum Length=[100]. You may need to shorten the names.
   **   ~~~   ** Shortening the Object Name by [10] characters will assure uniqueness for this ZoneList.
   **   ~~~   ** name that will be used (may be needed in reporting)="ZONE SMALLOFFICE WHOLEBUILDING - SM OFFICE A END_A - STORY GROUND SMALLOFFICE WHOLEBUILDING - SM OFFICE LIGHTS".
   ** Warning ** GetInternalHeatGains: Lights Combination of ZoneList and Object Name generate a name too long.
   **   ~~~   ** Object Name="SMALLOFFICE WHOLEBUILDING - SM OFFICE LIGHTS".
   **   ~~~   ** ZoneList/Zone Name="ZONE SMALLOFFICE WHOLEBUILDING - SM OFFICE A END_B - STORY GROUND".
   **   ~~~   ** Item length=[109] > Maximum Length=[100]. You may need to shorten the names.
   **   ~~~   ** Shortening the Object Name by [10] characters will assure uniqueness for this ZoneList.
   **   ~~~   ** name that will be used (may be needed in reporting)="ZONE SMALLOFFICE WHOLEBUILDING - SM OFFICE A END_B - STORY GROUND SMALLOFFICE WHOLEBUILDING - SM OFFICE LIGHTS".
   ** Warning ** GetInternalHeatGains: Lights Combination of ZoneList and Object Name generate a name too long.
   **   ~~~   ** Object Name="SMALLOFFICE WHOLEBUILDING - SM OFFICE LIGHTS".
   **   ~~~   ** ZoneList/Zone Name="ZONE SMALLOFFICE WHOLEBUILDING - SM OFFICE B  - STORY GROUND".
   **   ~~~   ** Item length=[104] > Maximum Length=[100]. You may need to shorten the names.
   **   ~~~   ** Shortening the Object Name by [10] characters will assure uniqueness for this ZoneList.
   **   ~~~   ** name that will be used (may be needed in reporting)="ZONE SMALLOFFICE WHOLEBUILDING - SM OFFICE B  - STORY GROUND SMALLOFFICE WHOLEBUILDING - SM OFFICE LIGHTS".
   ** Warning ** GetInternalHeatGains: Lights Combination of ZoneList and Object Name generate a name too long.
   **   ~~~   ** Object Name="SMALLOFFICE WHOLEBUILDING - SM OFFICE LIGHTS".
   **   ~~~   ** ZoneList/Zone Name="ZONE SMALLOFFICE WHOLEBUILDING - SM OFFICE B END_A - STORY GROUND".
   **   ~~~   ** Item length=[109] > Maximum Length=[100]. You may need to shorten the names.
   **   ~~~   ** Shortening the Object Name by [10] characters will assure uniqueness for this ZoneList.
   **   ~~~   ** name that will be used (may be needed in reporting)="ZONE SMALLOFFICE WHOLEBUILDING - SM OFFICE B END_A - STORY GROUND SMALLOFFICE WHOLEBUILDING - SM OFFICE LIGHTS".
   ** Warning ** GetInternalHeatGains: Lights Combination of ZoneList and Object Name generate a name too long.
   **   ~~~   ** Object Name="SMALLOFFICE WHOLEBUILDING - SM OFFICE LIGHTS".
   **   ~~~   ** ZoneList/Zone Name="ZONE SMALLOFFICE WHOLEBUILDING - SM OFFICE B END_B - STORY GROUND".
   **   ~~~   ** Item length=[109] > Maximum Length=[100]. You may need to shorten the names.
   **   ~~~   ** Shortening the Object Name by [10] characters will assure uniqueness for this ZoneList.
   **   ~~~   ** name that will be used (may be needed in reporting)="ZONE SMALLOFFICE WHOLEBUILDING - SM OFFICE B END_B - STORY GROUND SMALLOFFICE WHOLEBUILDING - SM OFFICE LIGHTS".
   ** Warning ** GetInternalHeatGains: Lights Combination of ZoneList and Object Name generate a name too long.
   **   ~~~   ** Object Name="SMALLOFFICE WHOLEBUILDING - SM OFFICE LIGHTS".
   **   ~~~   ** ZoneList/Zone Name="ZONE SMALLOFFICE WHOLEBUILDING - SM OFFICE C  - STORY GROUND".
   **   ~~~   ** Item length=[104] > Maximum Length=[100]. You may need to shorten the names.
   **   ~~~   ** Shortening the Object Name by [10] characters will assure uniqueness for this ZoneList.
   **   ~~~   ** name that will be used (may be needed in reporting)="ZONE SMALLOFFICE WHOLEBUILDING - SM OFFICE C  - STORY GROUND SMALLOFFICE WHOLEBUILDING - SM OFFICE LIGHTS".
   ** Warning ** GetInternalHeatGains: Lights Combination of ZoneList and Object Name generate a name too long.
   **   ~~~   ** Object Name="SMALLOFFICE WHOLEBUILDING - SM OFFICE LIGHTS".
   **   ~~~   ** ZoneList/Zone Name="ZONE SMALLOFFICE WHOLEBUILDING - SM OFFICE C END_A - STORY GROUND".
   **   ~~~   ** Item length=[109] > Maximum Length=[100]. You may need to shorten the names.
   **   ~~~   ** Shortening the Object Name by [10] characters will assure uniqueness for this ZoneList.
   **   ~~~   ** name that will be used (may be needed in reporting)="ZONE SMALLOFFICE WHOLEBUILDING - SM OFFICE C END_A - STORY GROUND SMALLOFFICE WHOLEBUILDING - SM OFFICE LIGHTS".
   ** Warning ** GetInternalHeatGains: Lights Combination of ZoneList and Object Name generate a name too long.
   **   ~~~   ** Object Name="SMALLOFFICE WHOLEBUILDING - SM OFFICE LIGHTS".
   **   ~~~   ** ZoneList/Zone Name="ZONE SMALLOFFICE WHOLEBUILDING - SM OFFICE C END_B - STORY GROUND".
   **   ~~~   ** Item length=[109] > Maximum Length=[100]. You may need to shorten the names.
   **   ~~~   ** Shortening the Object Name by [10] characters will assure uniqueness for this ZoneList.
   **   ~~~   ** name that will be used (may be needed in reporting)="ZONE SMALLOFFICE WHOLEBUILDING - SM OFFICE C END_B - STORY GROUND SMALLOFFICE WHOLEBUILDING - SM OFFICE LIGHTS".
   ** Warning ** GetInternalHeatGains: ElectricEquipment Combination of ZoneList and Object Name generate a name too long.
   **   ~~~   ** Object Name="SMALLOFFICE WHOLEBUILDING - SM OFFICE ELEC EQUIP".
   **   ~~~   ** ZoneList/Zone Name="ZONE SMALLOFFICE WHOLEBUILDING - SM OFFICE A  - STORY GROUND".
   **   ~~~   ** Item length=[108] > Maximum Length=[100]. You may need to shorten the names.
   **   ~~~   ** Shortening the Object Name by [14] characters will assure uniqueness for this ZoneList.
   **   ~~~   ** name that will be used (may be needed in reporting)="ZONE SMALLOFFICE WHOLEBUILDING - SM OFFICE A  - STORY GROUND SMALLOFFICE WHOLEBUILDING - SM OFFICE ELEC EQUIP".
   ** Warning ** GetInternalHeatGains: ElectricEquipment Combination of ZoneList and Object Name generate a name too long.
   **   ~~~   ** Object Name="SMALLOFFICE WHOLEBUILDING - SM OFFICE ELEC EQUIP".
   **   ~~~   ** ZoneList/Zone Name="ZONE SMALLOFFICE WHOLEBUILDING - SM OFFICE A END_A - STORY GROUND".
   **   ~~~   ** Item length=[113] > Maximum Length=[100]. You may need to shorten the names.
   **   ~~~   ** Shortening the Object Name by [14] characters will assure uniqueness for this ZoneList.
   **   ~~~   ** name that will be used (may be needed in reporting)="ZONE SMALLOFFICE WHOLEBUILDING - SM OFFICE A END_A - STORY GROUND SMALLOFFICE WHOLEBUILDING - SM OFFICE ELEC EQUIP".
   ** Warning ** GetInternalHeatGains: ElectricEquipment Combination of ZoneList and Object Name generate a name too long.
   **   ~~~   ** Object Name="SMALLOFFICE WHOLEBUILDING - SM OFFICE ELEC EQUIP".
   **   ~~~   ** ZoneList/Zone Name="ZONE SMALLOFFICE WHOLEBUILDING - SM OFFICE A END_B - STORY GROUND".
   **   ~~~   ** Item length=[113] > Maximum Length=[100]. You may need to shorten the names.
   **   ~~~   ** Shortening the Object Name by [14] characters will assure uniqueness for this ZoneList.
   **   ~~~   ** name that will be used (may be needed in reporting)="ZONE SMALLOFFICE WHOLEBUILDING - SM OFFICE A END_B - STORY GROUND SMALLOFFICE WHOLEBUILDING - SM OFFICE ELEC EQUIP".
   ** Warning ** GetInternalHeatGains: ElectricEquipment Combination of ZoneList and Object Name generate a name too long.
   **   ~~~   ** Object Name="SMALLOFFICE WHOLEBUILDING - SM OFFICE ELEC EQUIP".
   **   ~~~   ** ZoneList/Zone Name="ZONE SMALLOFFICE WHOLEBUILDING - SM OFFICE B  - STORY GROUND".
   **   ~~~   ** Item length=[108] > Maximum Length=[100]. You may need to shorten the names.
   **   ~~~   ** Shortening the Object Name by [14] characters will assure uniqueness for this ZoneList.
   **   ~~~   ** name that will be used (may be needed in reporting)="ZONE SMALLOFFICE WHOLEBUILDING - SM OFFICE B  - STORY GROUND SMALLOFFICE WHOLEBUILDING - SM OFFICE ELEC EQUIP".
   ** Warning ** GetInternalHeatGains: ElectricEquipment Combination of ZoneList and Object Name generate a name too long.
   **   ~~~   ** Object Name="SMALLOFFICE WHOLEBUILDING - SM OFFICE ELEC EQUIP".
   **   ~~~   ** ZoneList/Zone Name="ZONE SMALLOFFICE WHOLEBUILDING - SM OFFICE B END_A - STORY GROUND".
   **   ~~~   ** Item length=[113] > Maximum Length=[100]. You may need to shorten the names.
   **   ~~~   ** Shortening the Object Name by [14] characters will assure uniqueness for this ZoneList.
   **   ~~~   ** name that will be used (may be needed in reporting)="ZONE SMALLOFFICE WHOLEBUILDING - SM OFFICE B END_A - STORY GROUND SMALLOFFICE WHOLEBUILDING - SM OFFICE ELEC EQUIP".
   ** Warning ** GetInternalHeatGains: ElectricEquipment Combination of ZoneList and Object Name generate a name too long.
   **   ~~~   ** Object Name="SMALLOFFICE WHOLEBUILDING - SM OFFICE ELEC EQUIP".
   **   ~~~   ** ZoneList/Zone Name="ZONE SMALLOFFICE WHOLEBUILDING - SM OFFICE B END_B - STORY GROUND".
   **   ~~~   ** Item length=[113] > Maximum Length=[100]. You may need to shorten the names.
   **   ~~~   ** Shortening the Object Name by [14] characters will assure uniqueness for this ZoneList.
   **   ~~~   ** name that will be used (may be needed in reporting)="ZONE SMALLOFFICE WHOLEBUILDING - SM OFFICE B END_B - STORY GROUND SMALLOFFICE WHOLEBUILDING - SM OFFICE ELEC EQUIP".
   ** Warning ** GetInternalHeatGains: ElectricEquipment Combination of ZoneList and Object Name generate a name too long.
   **   ~~~   ** Object Name="SMALLOFFICE WHOLEBUILDING - SM OFFICE ELEC EQUIP".
   **   ~~~   ** ZoneList/Zone Name="ZONE SMALLOFFICE WHOLEBUILDING - SM OFFICE C  - STORY GROUND".
   **   ~~~   ** Item length=[108] > Maximum Length=[100]. You may need to shorten the names.
   **   ~~~   ** Shortening the Object Name by [14] characters will assure uniqueness for this ZoneList.
   **   ~~~   ** name that will be used (may be needed in reporting)="ZONE SMALLOFFICE WHOLEBUILDING - SM OFFICE C  - STORY GROUND SMALLOFFICE WHOLEBUILDING - SM OFFICE ELEC EQUIP".
   ** Warning ** GetInternalHeatGains: ElectricEquipment Combination of ZoneList and Object Name generate a name too long.
   **   ~~~   ** Object Name="SMALLOFFICE WHOLEBUILDING - SM OFFICE ELEC EQUIP".
   **   ~~~   ** ZoneList/Zone Name="ZONE SMALLOFFICE WHOLEBUILDING - SM OFFICE C END_A - STORY GROUND".
   **   ~~~   ** Item length=[113] > Maximum Length=[100]. You may need to shorten the names.
   **   ~~~   ** Shortening the Object Name by [14] characters will assure uniqueness for this ZoneList.
   **   ~~~   ** name that will be used (may be needed in reporting)="ZONE SMALLOFFICE WHOLEBUILDING - SM OFFICE C END_A - STORY GROUND SMALLOFFICE WHOLEBUILDING - SM OFFICE ELEC EQUIP".
   ** Warning ** GetInternalHeatGains: ElectricEquipment Combination of ZoneList and Object Name generate a name too long.
   **   ~~~   ** Object Name="SMALLOFFICE WHOLEBUILDING - SM OFFICE ELEC EQUIP".
   **   ~~~   ** ZoneList/Zone Name="ZONE SMALLOFFICE WHOLEBUILDING - SM OFFICE C END_B - STORY GROUND".
   **   ~~~   ** Item length=[113] > Maximum Length=[100]. You may need to shorten the names.
   **   ~~~   ** Shortening the Object Name by [14] characters will assure uniqueness for this ZoneList.
   **   ~~~   ** name that will be used (may be needed in reporting)="ZONE SMALLOFFICE WHOLEBUILDING - SM OFFICE C END_B - STORY GROUND SMALLOFFICE WHOLEBUILDING - SM OFFICE ELEC EQUIP".
   ************* Beginning System Sizing Calculations
   ** Warning ** AirLoopHVAC:UnitarySystem = ZONE SMALLOFFICE WHOLEBUILDING - SM OFFICE A  - STORY GROUND PSZ-AC UNITARY AC
   **   ~~~   ** Method used to determine the cooling supply air flow rate is not specified when cooling coil is present.
   ** Warning ** AirLoopHVAC:UnitarySystem = ZONE SMALLOFFICE WHOLEBUILDING - SM OFFICE A  - STORY GROUND PSZ-AC UNITARY AC
   **   ~~~   ** Method used to determine the heating supply air flow rate is not specified when heating coil is present.
   ** Warning ** AirLoopHVAC:UnitarySystem = ZONE SMALLOFFICE WHOLEBUILDING - SM OFFICE A END_A - STORY GROUND PSZ-AC UNITARY AC
   **   ~~~   ** Method used to determine the cooling supply air flow rate is not specified when cooling coil is present.
   ** Warning ** AirLoopHVAC:UnitarySystem = ZONE SMALLOFFICE WHOLEBUILDING - SM OFFICE A END_A - STORY GROUND PSZ-AC UNITARY AC
   **   ~~~   ** Method used to determine the heating supply air flow rate is not specified when heating coil is present.
   ** Warning ** AirLoopHVAC:UnitarySystem = ZONE SMALLOFFICE WHOLEBUILDING - SM OFFICE A END_B - STORY GROUND PSZ-AC UNITARY AC
   **   ~~~   ** Method used to determine the cooling supply air flow rate is not specified when cooling coil is present.
   ** Warning ** AirLoopHVAC:UnitarySystem = ZONE SMALLOFFICE WHOLEBUILDING - SM OFFICE A END_B - STORY GROUND PSZ-AC UNITARY AC
   **   ~~~   ** Method used to determine the heating supply air flow rate is not specified when heating coil is present.
   ** Warning ** AirLoopHVAC:UnitarySystem = ZONE SMALLOFFICE WHOLEBUILDING - SM OFFICE B  - STORY GROUND PSZ-AC UNITARY AC
   **   ~~~   ** Method used to determine the cooling supply air flow rate is not specified when cooling coil is present.
   ** Warning ** AirLoopHVAC:UnitarySystem = ZONE SMALLOFFICE WHOLEBUILDING - SM OFFICE B  - STORY GROUND PSZ-AC UNITARY AC
   **   ~~~   ** Method used to determine the heating supply air flow rate is not specified when heating coil is present.
   ** Warning ** AirLoopHVAC:UnitarySystem = ZONE SMALLOFFICE WHOLEBUILDING - SM OFFICE B END_A - STORY GROUND PSZ-AC UNITARY AC
   **   ~~~   ** Method used to determine the cooling supply air flow rate is not specified when cooling coil is present.
   ** Warning ** AirLoopHVAC:UnitarySystem = ZONE SMALLOFFICE WHOLEBUILDING - SM OFFICE B END_A - STORY GROUND PSZ-AC UNITARY AC
   **   ~~~   ** Method used to determine the heating supply air flow rate is not specified when heating coil is present.
   ** Warning ** AirLoopHVAC:UnitarySystem = ZONE SMALLOFFICE WHOLEBUILDING - SM OFFICE B END_B - STORY GROUND PSZ-AC UNITARY AC
   **   ~~~   ** Method used to determine the cooling supply air flow rate is not specified when cooling coil is present.
   ** Warning ** AirLoopHVAC:UnitarySystem = ZONE SMALLOFFICE WHOLEBUILDING - SM OFFICE B END_B - STORY GROUND PSZ-AC UNITARY AC
   **   ~~~   ** Method used to determine the heating supply air flow rate is not specified when heating coil is present.
   ** Warning ** AirLoopHVAC:UnitarySystem = ZONE SMALLOFFICE WHOLEBUILDING - SM OFFICE C  - STORY GROUND PSZ-AC UNITARY AC
   **   ~~~   ** Method used to determine the cooling supply air flow rate is not specified when cooling coil is present.
   ** Warning ** AirLoopHVAC:UnitarySystem = ZONE SMALLOFFICE WHOLEBUILDING - SM OFFICE C  - STORY GROUND PSZ-AC UNITARY AC
   **   ~~~   ** Method used to determine the heating supply air flow rate is not specified when heating coil is present.
   ** Warning ** AirLoopHVAC:UnitarySystem = ZONE SMALLOFFICE WHOLEBUILDING - SM OFFICE C END_A - STORY GROUND PSZ-AC UNITARY AC
   **   ~~~   ** Method used to determine the cooling supply air flow rate is not specified when cooling coil is present.
   ** Warning ** AirLoopHVAC:UnitarySystem = ZONE SMALLOFFICE WHOLEBUILDING - SM OFFICE C END_A - STORY GROUND PSZ-AC UNITARY AC
   **   ~~~   ** Method used to determine the heating supply air flow rate is not specified when heating coil is present.
   ** Warning ** AirLoopHVAC:UnitarySystem = ZONE SMALLOFFICE WHOLEBUILDING - SM OFFICE C END_B - STORY GROUND PSZ-AC UNITARY AC
   **   ~~~   ** Method used to determine the cooling supply air flow rate is not specified when cooling coil is present.
   ** Warning ** AirLoopHVAC:UnitarySystem = ZONE SMALLOFFICE WHOLEBUILDING - SM OFFICE C END_B - STORY GROUND PSZ-AC UNITARY AC
   **   ~~~   ** Method used to determine the heating supply air flow rate is not specified when heating coil is present.
   ************* Beginning Plant Sizing Calculations
   ** Warning ** GetOAControllerInputs: Controller:MechanicalVentilation="CONTROLLER MECHANICAL VENTILATION 6
   **   ~~~   ** Cannot locate a matching DesignSpecification:ZoneAirDistribution object for Zone="ZONE SMALLOFFICE WHOLEBUILDING - SM OFFICE A  - STORY GROUND".
   **   ~~~   ** Using default zone air distribution effectiveness of 1.0 for heating and cooling.
   ** Warning ** GetOAControllerInputs: Controller:MechanicalVentilation="CONTROLLER MECHANICAL VENTILATION 9
   **   ~~~   ** Cannot locate a matching DesignSpecification:ZoneAirDistribution object for Zone="ZONE SMALLOFFICE WHOLEBUILDING - SM OFFICE A END_A - STORY GROUND".
   **   ~~~   ** Using default zone air distribution effectiveness of 1.0 for heating and cooling.
   ** Warning ** GetOAControllerInputs: Controller:MechanicalVentilation="CONTROLLER MECHANICAL VENTILATION 1
   **   ~~~   ** Cannot locate a matching DesignSpecification:ZoneAirDistribution object for Zone="ZONE SMALLOFFICE WHOLEBUILDING - SM OFFICE A END_B - STORY GROUND".
   **   ~~~   ** Using default zone air distribution effectiveness of 1.0 for heating and cooling.
   ** Warning ** GetOAControllerInputs: Controller:MechanicalVentilation="CONTROLLER MECHANICAL VENTILATION 5
   **   ~~~   ** Cannot locate a matching DesignSpecification:ZoneAirDistribution object for Zone="ZONE SMALLOFFICE WHOLEBUILDING - SM OFFICE B  - STORY GROUND".
   **   ~~~   ** Using default zone air distribution effectiveness of 1.0 for heating and cooling.
   ** Warning ** GetOAControllerInputs: Controller:MechanicalVentilation="CONTROLLER MECHANICAL VENTILATION 8
   **   ~~~   ** Cannot locate a matching DesignSpecification:ZoneAirDistribution object for Zone="ZONE SMALLOFFICE WHOLEBUILDING - SM OFFICE B END_A - STORY GROUND".
   **   ~~~   ** Using default zone air distribution effectiveness of 1.0 for heating and cooling.
   ** Warning ** GetOAControllerInputs: Controller:MechanicalVentilation="CONTROLLER MECHANICAL VENTILATION 3
   **   ~~~   ** Cannot locate a matching DesignSpecification:ZoneAirDistribution object for Zone="ZONE SMALLOFFICE WHOLEBUILDING - SM OFFICE B END_B - STORY GROUND".
   **   ~~~   ** Using default zone air distribution effectiveness of 1.0 for heating and cooling.
   ** Warning ** GetOAControllerInputs: Controller:MechanicalVentilation="CONTROLLER MECHANICAL VENTILATION 4
   **   ~~~   ** Cannot locate a matching DesignSpecification:ZoneAirDistribution object for Zone="ZONE SMALLOFFICE WHOLEBUILDING - SM OFFICE C  - STORY GROUND".
   **   ~~~   ** Using default zone air distribution effectiveness of 1.0 for heating and cooling.
   ** Warning ** GetOAControllerInputs: Controller:MechanicalVentilation="CONTROLLER MECHANICAL VENTILATION 7
   **   ~~~   ** Cannot locate a matching DesignSpecification:ZoneAirDistribution object for Zone="ZONE SMALLOFFICE WHOLEBUILDING - SM OFFICE C END_A - STORY GROUND".
   **   ~~~   ** Using default zone air distribution effectiveness of 1.0 for heating and cooling.
   ** Warning ** GetOAControllerInputs: Controller:MechanicalVentilation="CONTROLLER MECHANICAL VENTILATION 2
   **   ~~~   ** Cannot locate a matching DesignSpecification:ZoneAirDistribution object for Zone="ZONE SMALLOFFICE WHOLEBUILDING - SM OFFICE C END_B - STORY GROUND".
   **   ~~~   ** Using default zone air distribution effectiveness of 1.0 for heating and cooling.
   ** Warning ** Check input. Pump nominal power or motor efficiency is set to 0, for pump=HOT WATER LOOP PUMP
   ** Warning ** Check input. Pump nominal flow rate is set or calculated = 0, for pump=HOT WATER LOOP PUMP
   ** Warning ** Missing temperature setpoint for LeavingSetpointModulated mode Boiler named BOILER
   **   ~~~   **   A temperature setpoint is needed at the outlet node of a boiler in variable flow mode, use a SetpointManager
   **   ~~~   **   The overall loop setpoint will be assumed for Boiler. The simulation continues ... 
   ** Warning ** Output:Meter: invalid Key Name="GAS:FACILITY" - not found.
   ** Warning ** Output:Meter: invalid Key Name="DISTRICTCOOLING:FACILITY" - not found.
   ** Warning ** Output:Meter: invalid Key Name="DISTRICTHEATING:FACILITY" - not found.
   ** Warning ** Output:Meter:MeterFileOnly: invalid Key Name="GAS:FACILITY" - not found.
   ** Warning ** Output:Meter:MeterFileOnly requested for "Electricity:Facility" (TimeStep), already on "Output:Meter". Will report to both eplusout.eso and eplusout.mtr
   ************* Testing Individual Branch Integrity
   ************* All Branches passed integrity testing
   ************* Testing Individual Supply Air Path Integrity
   ************* All Supply Air Paths passed integrity testing
   ************* Testing Individual Return Air Path Integrity
   ************* All Return Air Paths passed integrity testing
   ************* No node connection errors were found.
   ** Warning ** GetInputEconomicsTariff: UtilityCost:Tariff="IN EIAMONTHLYRATEGAS" missing meter
   **   ~~~   ** Meter referenced is not present due to a lack of equipment that uses that energy source/meter:"GAS:FACILITY".
   ** Warning ** GetInputEconomicsTariff: UtilityCost:Tariff="IN EIAMONTHLYRATEGAS" invalid data
   **   ~~~   ** Conversion Factor Choice="MCF", Defaulting to kWh.
   ** Warning ** SizePlantLoop: Calculated Plant Sizing Design Volume Flow Rate=[0.00] is too small. Set to 0.0
   **   ~~~   ** ..occurs for PlantLoop=HOT WATER LOOP
   ** Warning ** SizePump: Calculated Pump Nominal Volume Flow Rate=[0.00] is too small. Set to 0.0
   **   ~~~   ** ..occurs for Pump=HOT WATER LOOP PUMP
   ************* Beginning Simulation
   ** Warning ** CalcOAController: Minimum OA fraction > Mechanical Ventilation Controller request for Controller:OutdoorAir=ZONE SMALLOFFICE WHOLEBUILDING - SM OFFICE A  - STORY GROUND PSZ-AC OA SYSTEM CONTROLLER, Min OA fraction is used.
   **   ~~~   ** This may be overriding desired ventilation controls. Check inputs for Minimum Outdoor Air Flow Rate, Minimum Outdoor Air Schedule Name and Controller:MechanicalVentilation
   **   ~~~   ** Minimum OA fraction = 0.1375, Mech Vent OA fraction = 1.1985E-002
   **   ~~~   **  Environment=RUN PERIOD 1, at Simulation time=01/01 08:00 - 08:15
   ** Warning ** CalcOAController: Minimum OA fraction > Mechanical Ventilation Controller request for Controller:OutdoorAir=ZONE SMALLOFFICE WHOLEBUILDING - SM OFFICE A END_A - STORY GROUND PSZ-AC OA SYSTEM CONTROLLER, Min OA fraction is used.
   **   ~~~   ** This may be overriding desired ventilation controls. Check inputs for Minimum Outdoor Air Flow Rate, Minimum Outdoor Air Schedule Name and Controller:MechanicalVentilation
   **   ~~~   ** Minimum OA fraction = 9.6111E-002, Mech Vent OA fraction = 1.4281E-002
   **   ~~~   **  Environment=RUN PERIOD 1, at Simulation time=01/01 08:00 - 08:15
   ** Warning ** CalcOAController: Minimum OA fraction > Mechanical Ventilation Controller request for Controller:OutdoorAir=ZONE SMALLOFFICE WHOLEBUILDING - SM OFFICE A END_B - STORY GROUND PSZ-AC OA SYSTEM CONTROLLER, Min OA fraction is used.
   **   ~~~   ** This may be overriding desired ventilation controls. Check inputs for Minimum Outdoor Air Flow Rate, Minimum Outdoor Air Schedule Name and Controller:MechanicalVentilation
   **   ~~~   ** Minimum OA fraction = 0.1110, Mech Vent OA fraction = 1.5519E-002
   **   ~~~   **  Environment=RUN PERIOD 1, at Simulation time=01/01 08:00 - 08:15
   ** Warning ** CalcOAController: Minimum OA fraction > Mechanical Ventilation Controller request for Controller:OutdoorAir=ZONE SMALLOFFICE WHOLEBUILDING - SM OFFICE B  - STORY GROUND PSZ-AC OA SYSTEM CONTROLLER, Min OA fraction is used.
   **   ~~~   ** This may be overriding desired ventilation controls. Check inputs for Minimum Outdoor Air Flow Rate, Minimum Outdoor Air Schedule Name and Controller:MechanicalVentilation
   **   ~~~   ** Minimum OA fraction = 0.2149, Mech Vent OA fraction = 1.7598E-003
   **   ~~~   **  Environment=RUN PERIOD 1, at Simulation time=01/01 08:00 - 08:15
   ** Warning ** CalcOAController: Minimum OA fraction > Mechanical Ventilation Controller request for Controller:OutdoorAir=ZONE SMALLOFFICE WHOLEBUILDING - SM OFFICE B END_A - STORY GROUND PSZ-AC OA SYSTEM CONTROLLER, Min OA fraction is used.
   **   ~~~   ** This may be overriding desired ventilation controls. Check inputs for Minimum Outdoor Air Flow Rate, Minimum Outdoor Air Schedule Name and Controller:MechanicalVentilation
   **   ~~~   ** Minimum OA fraction = 0.1194, Mech Vent OA fraction = 1.3196E-002
   **   ~~~   **  Environment=RUN PERIOD 1, at Simulation time=01/01 08:00 - 08:15
   ** Warning ** CalcOAController: Minimum OA fraction > Mechanical Ventilation Controller request for Controller:OutdoorAir=ZONE SMALLOFFICE WHOLEBUILDING - SM OFFICE B END_B - STORY GROUND PSZ-AC OA SYSTEM CONTROLLER, Min OA fraction is used.
   **   ~~~   ** This may be overriding desired ventilation controls. Check inputs for Minimum Outdoor Air Flow Rate, Minimum Outdoor Air Schedule Name and Controller:MechanicalVentilation
   **   ~~~   ** Minimum OA fraction = 0.1438, Mech Vent OA fraction = 1.3188E-002
   **   ~~~   **  Environment=RUN PERIOD 1, at Simulation time=01/01 08:00 - 08:15
   ** Warning ** CalcOAController: Minimum OA fraction > Mechanical Ventilation Controller request for Controller:OutdoorAir=ZONE SMALLOFFICE WHOLEBUILDING - SM OFFICE C  - STORY GROUND PSZ-AC OA SYSTEM CONTROLLER, Min OA fraction is used.
   **   ~~~   ** This may be overriding desired ventilation controls. Check inputs for Minimum Outdoor Air Flow Rate, Minimum Outdoor Air Schedule Name and Controller:MechanicalVentilation
   **   ~~~   ** Minimum OA fraction = 0.1783, Mech Vent OA fraction = 2.8709E-002
   **   ~~~   **  Environment=RUN PERIOD 1, at Simulation time=01/01 08:00 - 08:15
   ** Warning ** CalcOAController: Minimum OA fraction > Mechanical Ventilation Controller request for Controller:OutdoorAir=ZONE SMALLOFFICE WHOLEBUILDING - SM OFFICE C END_A - STORY GROUND PSZ-AC OA SYSTEM CONTROLLER, Min OA fraction is used.
   **   ~~~   ** This may be overriding desired ventilation controls. Check inputs for Minimum Outdoor Air Flow Rate, Minimum Outdoor Air Schedule Name and Controller:MechanicalVentilation
   **   ~~~   ** Minimum OA fraction = 0.1077, Mech Vent OA fraction = 2.1281E-002
   **   ~~~   **  Environment=RUN PERIOD 1, at Simulation time=01/01 08:00 - 08:15
   ** Warning ** CalcOAController: Minimum OA fraction > Mechanical Ventilation Controller request for Controller:OutdoorAir=ZONE SMALLOFFICE WHOLEBUILDING - SM OFFICE C END_B - STORY GROUND PSZ-AC OA SYSTEM CONTROLLER, Min OA fraction is used.
   **   ~~~   ** This may be overriding desired ventilation controls. Check inputs for Minimum Outdoor Air Flow Rate, Minimum Outdoor Air Schedule Name and Controller:MechanicalVentilation
   **   ~~~   ** Minimum OA fraction = 0.1330, Mech Vent OA fraction = 2.7048E-002
   **   ~~~   **  Environment=RUN PERIOD 1, at Simulation time=01/01 08:00 - 08:15
   ** Warning ** SimHVAC: Maximum iterations (20) exceeded for all HVAC loops, at RUN PERIOD 1, 01/17 14:15 - 14:30
   **   ~~~   ** The solution for one or more of the Air Loop HVAC systems did not appear to converge
   **   ~~~   ** ...use Output:Diagnostics,DisplayExtraWarnings; to show more details on each max iteration exceeded.
   ** Warning ** SimHVAC: Maximum iterations (20) exceeded for all HVAC loops, at RUN PERIOD 1, 02/14 14:45 - 15:00
   **   ~~~   ** The solution for one or more of the Air Loop HVAC systems did not appear to converge
   ** Warning ** SimHVAC: Maximum iterations (20) exceeded for all HVAC loops, at RUN PERIOD 1, 02/28 14:00 - 14:15
   **   ~~~   ** The solution for one or more of the Air Loop HVAC systems did not appear to converge
   ** Warning ** SimHVAC: Maximum iterations (20) exceeded for all HVAC loops, at RUN PERIOD 1, 03/05 16:45 - 17:00
   **   ~~~   ** The solution for one or more of the Air Loop HVAC systems did not appear to converge
   ** Warning ** SimHVAC: Maximum iterations (20) exceeded for all HVAC loops, at RUN PERIOD 1, 03/05 16:45 - 16:52
   **   ~~~   ** The solution for one or more of the Air Loop HVAC systems did not appear to converge
   ** Warning ** SimHVAC: Maximum iterations (20) exceeded for all HVAC loops, at RUN PERIOD 1, 03/05 16:53 - 17:00
   **   ~~~   ** The solution for one or more of the Air Loop HVAC systems did not appear to converge
   ** Warning ** SimHVAC: Maximum iterations (20) exceeded for all HVAC loops, at RUN PERIOD 1, 03/14 11:53 - 12:00
   **   ~~~   ** The solution for one or more of the Air Loop HVAC systems did not appear to converge
   ** Warning ** SimHVAC: Maximum iterations (20) exceeded for all HVAC loops, at RUN PERIOD 1, 03/27 10:15 - 10:22
   **   ~~~   ** The solution for one or more of the Air Loop HVAC systems did not appear to converge
   ** Warning ** SimHVAC: Maximum iterations (20) exceeded for all HVAC loops, at RUN PERIOD 1, 04/01 12:45 - 13:00
   **   ~~~   ** The solution for one or more of the Air Loop HVAC systems did not appear to converge
   ** Warning ** SimHVAC: Maximum iterations (20) exceeded for all HVAC loops, at RUN PERIOD 1, 04/24 13:00 - 13:15
   **   ~~~   ** The solution for one or more of the Air Loop HVAC systems did not appear to converge
   ** Warning ** SimHVAC: Maximum iterations (20) exceeded for all HVAC loops, at RUN PERIOD 1, 04/29 15:45 - 16:00
   **   ~~~   ** The solution for one or more of the Air Loop HVAC systems did not appear to converge
   ** Warning ** SimHVAC: Maximum iterations (20) exceeded for all HVAC loops, at RUN PERIOD 1, 05/08 13:30 - 13:45
   **   ~~~   ** The solution for one or more of the Air Loop HVAC systems did not appear to converge
   ** Warning ** SimHVAC: Maximum iterations (20) exceeded for all HVAC loops, at RUN PERIOD 1, 05/17 15:15 - 15:30
   **   ~~~   ** The solution for one or more of the Air Loop HVAC systems did not appear to converge
   ** Warning ** SimHVAC: Maximum iterations (20) exceeded for all HVAC loops, at RUN PERIOD 1, 05/17 17:00 - 17:15
   **   ~~~   ** The solution for one or more of the Air Loop HVAC systems did not appear to converge
   ** Warning ** The resource referenced by LifeCycleCost:UsePriceEscalation= "U.S. AVG  COMMERCIAL-ELECTRICITY" has no energy cost. 
   **   ~~~   ** ... It is likely that the wrong resource is used. The resource should match the meter used in Utility:Tariff.
   ** Warning ** The resource referenced by LifeCycleCost:UsePriceEscalation= "U.S. AVG  COMMERCIAL-DISTILLATE OIL" has no energy cost. 
   **   ~~~   ** ... It is likely that the wrong resource is used. The resource should match the meter used in Utility:Tariff.
   ** Warning ** The resource referenced by LifeCycleCost:UsePriceEscalation= "U.S. AVG  COMMERCIAL-RESIDUAL OIL" has no energy cost. 
   **   ~~~   ** ... It is likely that the wrong resource is used. The resource should match the meter used in Utility:Tariff.
   ** Warning ** The resource referenced by LifeCycleCost:UsePriceEscalation= "U.S. AVG  COMMERCIAL-NATURAL GAS" has no energy cost. 
   **   ~~~   ** ... It is likely that the wrong resource is used. The resource should match the meter used in Utility:Tariff.
   ** Warning ** The resource referenced by LifeCycleCost:UsePriceEscalation= "U.S. AVG  COMMERCIAL-COAL" has no energy cost. 
   **   ~~~   ** ... It is likely that the wrong resource is used. The resource should match the meter used in Utility:Tariff.
   ************* Simulation Error Summary *************
   ************* There are 7 unused schedules in input.
   ************* There are 9 unused week schedules in input.
   ************* There are 16 unused day schedules in input.
   ************* Use Output:Diagnostics,DisplayUnusedSchedules; to see them.
   *************
   ************* ===== Recurring Error Summary =====
   ************* The following recurring error messages occurred.
   *************
   *************  ** Warning ** Controller:OutdoorAir="ZONE SMALLOFFICE WHOLEBUILDING - SM OFFICE A  - STORY GROUND PSZ-AC OA SYSTEM CONTROLLER": Min OA fraction > Mechanical ventilation OA fraction, continues...
   *************  **   ~~~   **   This error occurred 79297 total times;
   *************  **   ~~~   **   during Warmup 0 times;
   *************  **   ~~~   **   during Sizing 0 times.
   *************  **   ~~~   **   Max=0.137513  Min=0.137513
   *************
   *************  ** Warning ** Controller:OutdoorAir="ZONE SMALLOFFICE WHOLEBUILDING - SM OFFICE A END_A - STORY GROUND PSZ-AC OA SYSTEM CONTROLLER": Min OA fraction > Mechanical ventilation OA fraction, continues...
   *************  **   ~~~   **   This error occurred 86425 total times;
   *************  **   ~~~   **   during Warmup 0 times;
   *************  **   ~~~   **   during Sizing 0 times.
   *************  **   ~~~   **   Max=9.611138E-002  Min=9.611138E-002
   *************
   *************  ** Warning ** Controller:OutdoorAir="ZONE SMALLOFFICE WHOLEBUILDING - SM OFFICE A END_B - STORY GROUND PSZ-AC OA SYSTEM CONTROLLER": Min OA fraction > Mechanical ventilation OA fraction, continues...
   *************  **   ~~~   **   This error occurred 89417 total times;
   *************  **   ~~~   **   during Warmup 0 times;
   *************  **   ~~~   **   during Sizing 0 times.
   *************  **   ~~~   **   Max=0.110985  Min=0.110985
   *************
   *************  ** Warning ** Controller:OutdoorAir="ZONE SMALLOFFICE WHOLEBUILDING - SM OFFICE B  - STORY GROUND PSZ-AC OA SYSTEM CONTROLLER": Min OA fraction > Mechanical ventilation OA fraction, continues...
   *************  **   ~~~   **   This error occurred 58255 total times;
   *************  **   ~~~   **   during Warmup 0 times;
   *************  **   ~~~   **   during Sizing 0 times.
   *************  **   ~~~   **   Max=0.21486  Min=0.21486
   *************
   *************  ** Warning ** Controller:OutdoorAir="ZONE SMALLOFFICE WHOLEBUILDING - SM OFFICE B END_A - STORY GROUND PSZ-AC OA SYSTEM CONTROLLER": Min OA fraction > Mechanical ventilation OA fraction, continues...
   *************  **   ~~~   **   This error occurred 77749 total times;
   *************  **   ~~~   **   during Warmup 0 times;
   *************  **   ~~~   **   during Sizing 0 times.
   *************  **   ~~~   **   Max=0.119411  Min=0.119411
   *************
   *************  ** Warning ** Controller:OutdoorAir="ZONE SMALLOFFICE WHOLEBUILDING - SM OFFICE B END_B - STORY GROUND PSZ-AC OA SYSTEM CONTROLLER": Min OA fraction > Mechanical ventilation OA fraction, continues...
   *************  **   ~~~   **   This error occurred 79901 total times;
   *************  **   ~~~   **   during Warmup 0 times;
   *************  **   ~~~   **   during Sizing 0 times.
   *************  **   ~~~   **   Max=0.143786  Min=0.143786
   *************
   *************  ** Warning ** Controller:OutdoorAir="ZONE SMALLOFFICE WHOLEBUILDING - SM OFFICE C  - STORY GROUND PSZ-AC OA SYSTEM CONTROLLER": Min OA fraction > Mechanical ventilation OA fraction, continues...
   *************  **   ~~~   **   This error occurred 80195 total times;
   *************  **   ~~~   **   during Warmup 0 times;
   *************  **   ~~~   **   during Sizing 0 times.
   *************  **   ~~~   **   Max=0.178329  Min=0.178329
   *************
   *************  ** Warning ** Controller:OutdoorAir="ZONE SMALLOFFICE WHOLEBUILDING - SM OFFICE C END_A - STORY GROUND PSZ-AC OA SYSTEM CONTROLLER": Min OA fraction > Mechanical ventilation OA fraction, continues...
   *************  **   ~~~   **   This error occurred 93191 total times;
   *************  **   ~~~   **   during Warmup 0 times;
   *************  **   ~~~   **   during Sizing 0 times.
   *************  **   ~~~   **   Max=0.107659  Min=0.107659
   *************
   *************  ** Warning ** Controller:OutdoorAir="ZONE SMALLOFFICE WHOLEBUILDING - SM OFFICE C END_B - STORY GROUND PSZ-AC OA SYSTEM CONTROLLER": Min OA fraction > Mechanical ventilation OA fraction, continues...
   *************  **   ~~~   **   This error occurred 93167 total times;
   *************  **   ~~~   **   during Warmup 0 times;
   *************  **   ~~~   **   during Sizing 0 times.
   *************  **   ~~~   **   Max=0.133048  Min=0.133048
   *************
   *************  ** Warning ** SimHVAC: Exceeding Maximum iterations for all HVAC loops, during RUN PERIOD 1 continues
   *************  **   ~~~   **   This error occurred 10 total times;
   *************  **   ~~~   **   during Warmup 0 times;
   *************  **   ~~~   **   during Sizing 0 times.
   *************
   *************
   ************* ===== Final Error Summary =====
   ************* The following error categories occurred.  Consider correcting or noting.
   ************* Nominally Unused Constructions
   ************* ..The nominally unused constructions warning is provided to alert you to potential conditions that can cause
   ************* ..extra time during simulation. Each construction is calculated by the algorithm indicated in the HeatBalanceAlgorithm
   ************* ..object. You may remove the constructions indicated (when you use the DisplayExtraWarnings option).
   *************
   ************* EnergyPlus Warmup Error Summary. During Warmup: 0 Warning; 0 Severe Errors.
   ************* EnergyPlus Sizing Error Summary. During Sizing: 88 Warning; 0 Severe Errors.
   ************* EnergyPlus Completed Successfully-- 737744 Warning; 0 Severe Errors; Elapsed Time=00hr 00min 34.53sec
