Program Version,EnergyPlus, Version 9.4.0-998c4b761e, YMD=2021.06.25 08:52
! <Version>, Version ID
 Version, 9.4
! <Timesteps per Hour>, #TimeSteps, Minutes per TimeStep {minutes}
 Timesteps per Hour,  4, 15
! <System Convergence Limits>, Minimum System TimeStep {minutes}, Max HVAC Iterations, Minimum Plant Iterations, Maximum Plant Iterations
 System Convergence Limits, 1, 20, 2, 8
! <Simulation Control>, Do Zone Sizing, Do System Sizing, Do Plant Sizing, Do Design Days, Do Weather Simulation, Do HVAC Sizing Simulation
 Simulation Control, Yes, Yes, Yes, No, Yes, Yes
! <Performance Precision Tradeoffs>, Use Coil Direct Simulation, Zone Radiant Exchange Algorithm, Override Mode, Number of Timestep In Hour, Force Euler Method, Minimum Number of Warmup Days, Force Suppress All Begin Environment Resets, Minimum System Timestep, MaxZoneTempDiff, MaxAllowedDelTemp
 Performance Precision Tradeoffs, No, ScriptF, Normal, 4, No, 1, No, 1.0, 0.300, 2.0000E-003
! <Output Reporting Tolerances>, Tolerance for Time Heating Setpoint Not Met, Tolerance for Zone Cooling Setpoint Not Met Time
 Output Reporting Tolerances, 0.200, 0.200, 
! <Site:GroundTemperature:BuildingSurface>,Jan{C},Feb{C},Mar{C},Apr{C},May{C},Jun{C},Jul{C},Aug{C},Sep{C},Oct{C},Nov{C},Dec{C}
 Site:GroundTemperature:BuildingSurface,  18.00,  18.00,  18.00,  18.00,  18.00,  18.00,  18.00,  18.00,  18.00,  18.00,  18.00,  18.00
! <Site:GroundTemperature:FCfactorMethod>,Jan{C},Feb{C},Mar{C},Apr{C},May{C},Jun{C},Jul{C},Aug{C},Sep{C},Oct{C},Nov{C},Dec{C}
 Site:GroundTemperature:FCfactorMethod,  18.80,  14.30,  13.60,  13.20,  13.30,  12.60,  15.30,  15.60,  17.70,  19.40,  19.70,  18.50
! <Site:GroundTemperature:Shallow>,Jan{C},Feb{C},Mar{C},Apr{C},May{C},Jun{C},Jul{C},Aug{C},Sep{C},Oct{C},Nov{C},Dec{C}
 Site:GroundTemperature:Shallow,  13.00,  13.00,  13.00,  13.00,  13.00,  13.00,  13.00,  13.00,  13.00,  13.00,  13.00,  13.00
! <Site:GroundTemperature:Deep>,Jan{C},Feb{C},Mar{C},Apr{C},May{C},Jun{C},Jul{C},Aug{C},Sep{C},Oct{C},Nov{C},Dec{C}
 Site:GroundTemperature:Deep,  16.00,  16.00,  16.00,  16.00,  16.00,  16.00,  16.00,  16.00,  16.00,  16.00,  16.00,  16.00
! <Site:GroundReflectance>,Jan{dimensionless},Feb{dimensionless},Mar{dimensionless},Apr{dimensionless},May{dimensionless},Jun{dimensionless},Jul{dimensionless},Aug{dimensionless},Sep{dimensionless},Oct{dimensionless},Nov{dimensionless},Dec{dimensionless}
 Site:GroundReflectance,  0.20,  0.20,  0.20,  0.20,  0.20,  0.20,  0.20,  0.20,  0.20,  0.20,  0.20,  0.20
! <Site:GroundReflectance:SnowModifier>, Normal, Daylighting {dimensionless}
 Site:GroundReflectance:SnowModifier,   1.000,   1.000
! <Site:GroundReflectance:Snow>,Jan{dimensionless},Feb{dimensionless},Mar{dimensionless},Apr{dimensionless},May{dimensionless},Jun{dimensionless},Jul{dimensionless},Aug{dimensionless},Sep{dimensionless},Oct{dimensionless},Nov{dimensionless},Dec{dimensionless}
 Site:GroundReflectance:Snow,  0.20,  0.20,  0.20,  0.20,  0.20,  0.20,  0.20,  0.20,  0.20,  0.20,  0.20,  0.20
! <Site:GroundReflectance:Snow:Daylighting>,Jan{dimensionless},Feb{dimensionless},Mar{dimensionless},Apr{dimensionless},May{dimensionless},Jun{dimensionless},Jul{dimensionless},Aug{dimensionless},Sep{dimensionless},Oct{dimensionless},Nov{dimensionless},Dec{dimensionless}
 Site:GroundReflectance:Snow:Daylighting,  0.20,  0.20,  0.20,  0.20,  0.20,  0.20,  0.20,  0.20,  0.20,  0.20,  0.20,  0.20
! <Environment:Weather Station>,Wind Sensor Height Above Ground {m},Wind Speed Profile Exponent {},Wind Speed Profile Boundary Layer Thickness {m},Air Temperature Sensor Height Above Ground {m},Wind Speed Modifier Coefficient-Internal,Temperature Modifier Coefficient-Internal
Environment:Weather Station,10.000,0.140,270.000,1.500,1.586,9.750E-003
! <Site:Location>, Location Name, Latitude {N+/S- Deg}, Longitude {E+/W- Deg},  Time Zone Number {GMT+/-}, Elevation {m},  Standard Pressure at Elevation {Pa}, Standard RhoAir at Elevation
Site:Location,Climate Zone 3 CA USA CTZRV2 WMO#=724930,37.70,-122.20,-8.00,2.00,101301,1.2040
! <Site Water Mains Temperature Information>,Calculation Method{},Water Mains Temperature Schedule Name{},Annual Average Outdoor Air Temperature{C},Maximum Difference In Monthly Average Outdoor Air Temperatures{deltaC},Fixed Default Water Mains Temperature{C}
Site Water Mains Temperature Information,Correlation,NA,14.14,7.80,NA
! <Building Information>, Building Name,North Axis {deg},Terrain,  Loads Convergence Tolerance Value,Temperature Convergence Tolerance Value,  Solar Distribution,Maximum Number of Warmup Days,Minimum Number of Warmup Days
 Building Information,DOE Ref 1980-2004|SmallOffice|SmallOffice,0.000,City,4.00000E-002,0.40000,FullExterior,25,1
! <Inside Convection Algorithm>, Algorithm {Simple | TARP | CeilingDiffuser | AdaptiveConvectionAlgorithm}
Inside Convection Algorithm,TARP
! <Outside Convection Algorithm>, Algorithm {SimpleCombined | TARP | MoWitt | DOE-2 | AdaptiveConvectionAlgorithm}
Outside Convection Algorithm,DOE-2
! <Sky Radiance Distribution>, Value {Anisotropic}
Sky Radiance Distribution,Anisotropic
! <Zone Air Solution Algorithm>, Value {ThirdOrderBackwardDifference | AnalyticalSolution | EulerMethod}
 Zone Air Solution Algorithm, ThirdOrderBackwardDifference
! <Zone Air Carbon Dioxide Balance Simulation>, Simulation {Yes/No}, Carbon Dioxide Concentration
 Zone Air Carbon Dioxide Balance Simulation, No,N/A
! <Zone Air Generic Contaminant Balance Simulation>, Simulation {Yes/No}, Generic Contaminant Concentration
 Zone Air Generic Contaminant Balance Simulation, No,N/A
! <Zone Air Mass Flow Balance Simulation>, Enforce Mass Balance, Adjust Zone Mixing, Adjust Zone Infiltration {AddInfiltration | AdjustInfiltration | None}, Infiltration Zones {MixingSourceZonesOnly | AllZones}
 Zone Air Mass Flow Balance Simulation, No,N/A,N/A,N/A
! <HVACSystemRootFindingAlgorithm>, Value {RegulaFalsi | Bisection | BisectionThenRegulaFalsi | RegulaFalsiThenBisection}
 HVACSystemRootFindingAlgorithm, RegulaFalsi
! <Environment:Site Atmospheric Variation>,Wind Speed Profile Exponent {},Wind Speed Profile Boundary Layer Thickness {m},Air Temperature Gradient Coefficient {K/m}
Environment:Site Atmospheric Variation,0.330,460.000,6.500000E-003
! <Surface Geometry>,Starting Corner,Vertex Input Direction,Coordinate System,Daylight Reference Point Coordinate System,Rectangular (Simple) Surface Coordinate System
 Surface Geometry,UpperLeftCorner,Counterclockwise,RelativeCoordinateSystem,RelativeCoordinateSystem,RelativeToZoneOrigin
! <Surface Heat Transfer Algorithm>, Value {CTF - ConductionTransferFunction | EMPD - MoisturePenetrationDepthConductionTransferFunction | CondFD - ConductionFiniteDifference | HAMT - CombinedHeatAndMoistureFiniteElement} - Description,Inside Surface Max Temperature Limit{C}, Surface Convection Coefficient Lower Limit {W/m2-K}, Surface Convection Coefficient Upper Limit {W/m2-K}
Surface Heat Transfer Algorithm, CTF - ConductionTransferFunction,200,0.10,1000.0
! <Shading Summary>, Number of Fixed Detached Shades, Number of Building Detached Shades, Number of Attached Shades
 Shading Summary,0,0,0
! <Zone Summary>, Number of Zones, Number of Zone Surfaces, Number of SubSurfaces
 Zone Summary,9,66,12
! <Zone Information>,Zone Name,North Axis {deg},Origin X-Coordinate {m},Origin Y-Coordinate {m},Origin Z-Coordinate {m},Centroid X-Coordinate {m},Centroid Y-Coordinate {m},Centroid Z-Coordinate {m},Type,Zone Multiplier,Zone List Multiplier,Minimum X {m},Maximum X {m},Minimum Y {m},Maximum Y {m},Minimum Z {m},Maximum Z {m},Ceiling Height {m},Volume {m3},Zone Inside Convection Algorithm {Simple-Detailed-CeilingDiffuser-TrombeWall},Zone Outside Convection Algorithm {Simple-Detailed-Tarp-MoWitt-DOE-2-BLAST}, Floor Area {m2},Exterior Gross Wall Area {m2},Exterior Net Wall Area {m2},Exterior Window Area {m2}, Number of Surfaces, Number of SubSurfaces, Number of Shading SubSurfaces,  Part of Total Building Area
 Zone Information, ZONE SMALLOFFICE WHOLEBUILDING - SM OFFICE A  - STORY GROUND,0.0,-7.29,-7.91,0.00,-9.84E-015,-5.62,1.52,1,1,1,-7.29,7.29,-7.91,-3.34,0.00,3.05,3.05,203.15,TARP,DOE-2,66.65,44.43,37.77,6.66,6,1,0,Yes
 Zone Information, ZONE SMALLOFFICE WHOLEBUILDING - SM OFFICE A END_A - STORY GROUND,0.0,-11.86,-7.91,0.00,-9.57,-5.62,1.52,1,1,1,-11.86,-7.29,-7.91,-3.34,0.00,3.05,3.05,63.71,TARP,DOE-2,20.90,27.87,23.69,4.18,6,2,0,Yes
 Zone Information, ZONE SMALLOFFICE WHOLEBUILDING - SM OFFICE A END_B - STORY GROUND,0.0,7.29,-7.91,0.00,9.57,-5.62,1.52,1,1,1,7.29,11.86,-7.91,-3.34,0.00,3.05,3.05,63.71,TARP,DOE-2,20.90,27.87,23.69,4.18,6,2,0,Yes
 Zone Information, ZONE SMALLOFFICE WHOLEBUILDING - SM OFFICE B  - STORY GROUND,0.0,-7.29,-3.34,0.00,-9.84E-015,-1.10E-015,1.52,1,1,1,-7.29,7.29,-3.34,3.34,0.00,3.05,3.05,296.38,TARP,DOE-2,97.24,0.00,0.00,0.00,6,0,0,Yes
 Zone Information, ZONE SMALLOFFICE WHOLEBUILDING - SM OFFICE B END_A - STORY GROUND,0.0,-11.86,-3.34,0.00,-9.57,-1.07E-015,1.52,1,1,1,-11.86,-7.29,-3.34,3.34,0.00,3.05,3.05,92.95,TARP,DOE-2,30.50,20.33,17.28,3.05,6,1,0,Yes
 Zone Information, ZONE SMALLOFFICE WHOLEBUILDING - SM OFFICE B END_B - STORY GROUND,0.0,7.29,-3.34,0.00,9.57,-1.12E-015,1.52,1,1,1,7.29,11.86,-3.34,3.34,0.00,3.05,3.05,92.95,TARP,DOE-2,30.50,20.33,17.28,3.05,6,1,0,Yes
 Zone Information, ZONE SMALLOFFICE WHOLEBUILDING - SM OFFICE C  - STORY GROUND,0.0,-7.29,3.34,0.00,-9.96E-015,5.62,1.52,1,1,1,-7.29,7.29,3.34,7.91,0.00,3.05,3.05,203.15,TARP,DOE-2,66.65,44.43,37.77,6.66,6,1,0,Yes
 Zone Information, ZONE SMALLOFFICE WHOLEBUILDING - SM OFFICE C END_A - STORY GROUND,0.0,-11.86,3.34,0.00,-9.57,5.62,1.52,1,1,1,-11.86,-7.29,3.34,7.91,0.00,3.05,3.05,63.71,TARP,DOE-2,20.90,27.87,23.69,4.18,6,2,0,Yes
 Zone Information, ZONE SMALLOFFICE WHOLEBUILDING - SM OFFICE C END_B - STORY GROUND,0.0,7.29,3.34,0.00,9.57,5.62,1.52,1,1,1,7.29,11.86,3.34,7.91,0.00,3.05,3.05,63.71,TARP,DOE-2,20.90,27.87,23.69,4.18,6,2,0,Yes
! <Zone Internal Gains Nominal>,Zone Name, Floor Area {m2},# Occupants,Area per Occupant {m2/person},Occupant per Area {person/m2},Interior Lighting {W/m2},Electric Load {W/m2},Gas Load {W/m2},Other Load {W/m2},Hot Water Eq {W/m2},Steam Equipment {W/m2},Sum Loads per Area {W/m2},Outdoor Controlled Baseboard Heat
 Zone Internal Gains Nominal, ZONE SMALLOFFICE WHOLEBUILDING - SM OFFICE A  - STORY GROUND,66.65,3.6,18.581,5.382E-002,19.483,10.764,0.000,0.000,0.000,0.000,30.247,No
 Zone Internal Gains Nominal, ZONE SMALLOFFICE WHOLEBUILDING - SM OFFICE A END_A - STORY GROUND,20.90,1.1,18.581,5.382E-002,19.483,10.764,0.000,0.000,0.000,0.000,30.247,No
 Zone Internal Gains Nominal, ZONE SMALLOFFICE WHOLEBUILDING - SM OFFICE A END_B - STORY GROUND,20.90,1.1,18.581,5.382E-002,19.483,10.764,0.000,0.000,0.000,0.000,30.247,No
 Zone Internal Gains Nominal, ZONE SMALLOFFICE WHOLEBUILDING - SM OFFICE B  - STORY GROUND,97.24,5.2,18.581,5.382E-002,19.483,10.764,0.000,0.000,0.000,0.000,30.247,No
 Zone Internal Gains Nominal, ZONE SMALLOFFICE WHOLEBUILDING - SM OFFICE B END_A - STORY GROUND,30.50,1.6,18.581,5.382E-002,19.483,10.764,0.000,0.000,0.000,0.000,30.247,No
 Zone Internal Gains Nominal, ZONE SMALLOFFICE WHOLEBUILDING - SM OFFICE B END_B - STORY GROUND,30.50,1.6,18.581,5.382E-002,19.483,10.764,0.000,0.000,0.000,0.000,30.247,No
 Zone Internal Gains Nominal, ZONE SMALLOFFICE WHOLEBUILDING - SM OFFICE C  - STORY GROUND,66.65,3.6,18.581,5.382E-002,19.483,10.764,0.000,0.000,0.000,0.000,30.247,No
 Zone Internal Gains Nominal, ZONE SMALLOFFICE WHOLEBUILDING - SM OFFICE C END_A - STORY GROUND,20.90,1.1,18.581,5.382E-002,19.483,10.764,0.000,0.000,0.000,0.000,30.247,No
 Zone Internal Gains Nominal, ZONE SMALLOFFICE WHOLEBUILDING - SM OFFICE C END_B - STORY GROUND,20.90,1.1,18.581,5.382E-002,19.483,10.764,0.000,0.000,0.000,0.000,30.247,No
! <People Internal Gains Nominal>,Name,Schedule Name,Zone Name,Zone Floor Area {m2},# Zone Occupants,Number of People {},People/Floor Area {person/m2},Floor Area per person {m2/person},Fraction Radiant,Fraction Convected,Sensible Fraction Calculation,Activity level,ASHRAE 55 Warnings,Carbon Dioxide Generation Rate,Nominal Minimum Number of People,Nominal Maximum Number of People
 People Internal Gains Nominal, ZONE SMALLOFFICE WHOLEBUILDING - SM OFFICE A  - STORY GROUND SMALLOFFICE WHOLEBUILDING - SM OFFICE PEOPLE,SMALL OFFICE BLDG OCC,ZONE SMALLOFFICE WHOLEBUILDING - SM OFFICE A  - STORY GROUND,66.65,3.6,3.6,5.382E-002,18.581,0.300,0.700,AutoCalculate,SMALL OFFICE ACTIVITY,No,3.8200E-008,0,4
 People Internal Gains Nominal, ZONE SMALLOFFICE WHOLEBUILDING - SM OFFICE A END_A - STORY GROUND SMALLOFFICE WHOLEBUILDING - SM OFFICE PEOPLE,SMALL OFFICE BLDG OCC,ZONE SMALLOFFICE WHOLEBUILDING - SM OFFICE A END_A - STORY GROUND,20.90,1.1,1.1,5.382E-002,18.581,0.300,0.700,AutoCalculate,SMALL OFFICE ACTIVITY,No,3.8200E-008,0,1
 People Internal Gains Nominal, ZONE SMALLOFFICE WHOLEBUILDING - SM OFFICE A END_B - STORY GROUND SMALLOFFICE WHOLEBUILDING - SM OFFICE PEOPLE,SMALL OFFICE BLDG OCC,ZONE SMALLOFFICE WHOLEBUILDING - SM OFFICE A END_B - STORY GROUND,20.90,1.1,1.1,5.382E-002,18.581,0.300,0.700,AutoCalculate,SMALL OFFICE ACTIVITY,No,3.8200E-008,0,1
 People Internal Gains Nominal, ZONE SMALLOFFICE WHOLEBUILDING - SM OFFICE B  - STORY GROUND SMALLOFFICE WHOLEBUILDING - SM OFFICE PEOPLE,SMALL OFFICE BLDG OCC,ZONE SMALLOFFICE WHOLEBUILDING - SM OFFICE B  - STORY GROUND,97.24,5.2,5.2,5.382E-002,18.581,0.300,0.700,AutoCalculate,SMALL OFFICE ACTIVITY,No,3.8200E-008,0,5
 People Internal Gains Nominal, ZONE SMALLOFFICE WHOLEBUILDING - SM OFFICE B END_A - STORY GROUND SMALLOFFICE WHOLEBUILDING - SM OFFICE PEOPLE,SMALL OFFICE BLDG OCC,ZONE SMALLOFFICE WHOLEBUILDING - SM OFFICE B END_A - STORY GROUND,30.50,1.6,1.6,5.382E-002,18.581,0.300,0.700,AutoCalculate,SMALL OFFICE ACTIVITY,No,3.8200E-008,0,2
 People Internal Gains Nominal, ZONE SMALLOFFICE WHOLEBUILDING - SM OFFICE B END_B - STORY GROUND SMALLOFFICE WHOLEBUILDING - SM OFFICE PEOPLE,SMALL OFFICE BLDG OCC,ZONE SMALLOFFICE WHOLEBUILDING - SM OFFICE B END_B - STORY GROUND,30.50,1.6,1.6,5.382E-002,18.581,0.300,0.700,AutoCalculate,SMALL OFFICE ACTIVITY,No,3.8200E-008,0,2
 People Internal Gains Nominal, ZONE SMALLOFFICE WHOLEBUILDING - SM OFFICE C  - STORY GROUND SMALLOFFICE WHOLEBUILDING - SM OFFICE PEOPLE,SMALL OFFICE BLDG OCC,ZONE SMALLOFFICE WHOLEBUILDING - SM OFFICE C  - STORY GROUND,66.65,3.6,3.6,5.382E-002,18.581,0.300,0.700,AutoCalculate,SMALL OFFICE ACTIVITY,No,3.8200E-008,0,4
 People Internal Gains Nominal, ZONE SMALLOFFICE WHOLEBUILDING - SM OFFICE C END_A - STORY GROUND SMALLOFFICE WHOLEBUILDING - SM OFFICE PEOPLE,SMALL OFFICE BLDG OCC,ZONE SMALLOFFICE WHOLEBUILDING - SM OFFICE C END_A - STORY GROUND,20.90,1.1,1.1,5.382E-002,18.581,0.300,0.700,AutoCalculate,SMALL OFFICE ACTIVITY,No,3.8200E-008,0,1
 People Internal Gains Nominal, ZONE SMALLOFFICE WHOLEBUILDING - SM OFFICE C END_B - STORY GROUND SMALLOFFICE WHOLEBUILDING - SM OFFICE PEOPLE,SMALL OFFICE BLDG OCC,ZONE SMALLOFFICE WHOLEBUILDING - SM OFFICE C END_B - STORY GROUND,20.90,1.1,1.1,5.382E-002,18.581,0.300,0.700,AutoCalculate,SMALL OFFICE ACTIVITY,No,3.8200E-008,0,1
! <Lights Internal Gains Nominal>,Name,Schedule Name,Zone Name,Zone Floor Area {m2},# Zone Occupants,Lighting Level {W},Lights/Floor Area {W/m2},Lights per person {W/person},Fraction Return Air,Fraction Radiant,Fraction Short Wave,Fraction Convected,Fraction Replaceable,End-Use Category,Nominal Minimum Lighting Level {W},Nominal Maximum Lighting Level {W}
 Lights Internal Gains Nominal, ZONE SMALLOFFICE WHOLEBUILDING - SM OFFICE A  - STORY GROUND SMALLOFFICE WHOLEBUILDING - SM OFFICE LIGHTS,OFFICE BLDG LIGHT,ZONE SMALLOFFICE WHOLEBUILDING - SM OFFICE A  - STORY GROUND,66.65,3.6,1298.496,19.483,362.000,0.000,0.700,0.200,0.100,0.000,General,0.000,1298.496
 Lights Internal Gains Nominal, ZONE SMALLOFFICE WHOLEBUILDING - SM OFFICE A END_A - STORY GROUND SMALLOFFICE WHOLEBUILDING - SM OFFICE LIGHTS,OFFICE BLDG LIGHT,ZONE SMALLOFFICE WHOLEBUILDING - SM OFFICE A END_A - STORY GROUND,20.90,1.1,407.250,19.483,362.000,0.000,0.700,0.200,0.100,0.000,General,0.000,407.250
 Lights Internal Gains Nominal, ZONE SMALLOFFICE WHOLEBUILDING - SM OFFICE A END_B - STORY GROUND SMALLOFFICE WHOLEBUILDING - SM OFFICE LIGHTS,OFFICE BLDG LIGHT,ZONE SMALLOFFICE WHOLEBUILDING - SM OFFICE A END_B - STORY GROUND,20.90,1.1,407.250,19.483,362.000,0.000,0.700,0.200,0.100,0.000,General,0.000,407.250
 Lights Internal Gains Nominal, ZONE SMALLOFFICE WHOLEBUILDING - SM OFFICE B  - STORY GROUND SMALLOFFICE WHOLEBUILDING - SM OFFICE LIGHTS,OFFICE BLDG LIGHT,ZONE SMALLOFFICE WHOLEBUILDING - SM OFFICE B  - STORY GROUND,97.24,5.2,1894.461,19.483,362.000,0.000,0.700,0.200,0.100,0.000,General,0.000,1894.461
 Lights Internal Gains Nominal, ZONE SMALLOFFICE WHOLEBUILDING - SM OFFICE B END_A - STORY GROUND SMALLOFFICE WHOLEBUILDING - SM OFFICE LIGHTS,OFFICE BLDG LIGHT,ZONE SMALLOFFICE WHOLEBUILDING - SM OFFICE B END_A - STORY GROUND,30.50,1.6,594.164,19.483,362.000,0.000,0.700,0.200,0.100,0.000,General,0.000,594.164
 Lights Internal Gains Nominal, ZONE SMALLOFFICE WHOLEBUILDING - SM OFFICE B END_B - STORY GROUND SMALLOFFICE WHOLEBUILDING - SM OFFICE LIGHTS,OFFICE BLDG LIGHT,ZONE SMALLOFFICE WHOLEBUILDING - SM OFFICE B END_B - STORY GROUND,30.50,1.6,594.164,19.483,362.000,0.000,0.700,0.200,0.100,0.000,General,0.000,594.164
 Lights Internal Gains Nominal, ZONE SMALLOFFICE WHOLEBUILDING - SM OFFICE C  - STORY GROUND SMALLOFFICE WHOLEBUILDING - SM OFFICE LIGHTS,OFFICE BLDG LIGHT,ZONE SMALLOFFICE WHOLEBUILDING - SM OFFICE C  - STORY GROUND,66.65,3.6,1298.496,19.483,362.000,0.000,0.700,0.200,0.100,0.000,General,0.000,1298.496
 Lights Internal Gains Nominal, ZONE SMALLOFFICE WHOLEBUILDING - SM OFFICE C END_A - STORY GROUND SMALLOFFICE WHOLEBUILDING - SM OFFICE LIGHTS,OFFICE BLDG LIGHT,ZONE SMALLOFFICE WHOLEBUILDING - SM OFFICE C END_A - STORY GROUND,20.90,1.1,407.250,19.483,362.000,0.000,0.700,0.200,0.100,0.000,General,0.000,407.250
 Lights Internal Gains Nominal, ZONE SMALLOFFICE WHOLEBUILDING - SM OFFICE C END_B - STORY GROUND SMALLOFFICE WHOLEBUILDING - SM OFFICE LIGHTS,OFFICE BLDG LIGHT,ZONE SMALLOFFICE WHOLEBUILDING - SM OFFICE C END_B - STORY GROUND,20.90,1.1,407.250,19.483,362.000,0.000,0.700,0.200,0.100,0.000,General,0.000,407.250
! <ElectricEquipment Internal Gains Nominal>,Name,Schedule Name,Zone Name,Zone Floor Area {m2},# Zone Occupants,Equipment Level {W},Equipment/Floor Area {W/m2},Equipment per person {W/person},Fraction Latent,Fraction Radiant,Fraction Lost,Fraction Convected,End-Use SubCategory,Nominal Minimum Equipment Level {W},Nominal Maximum Equipment Level {W}
 ElectricEquipment Internal Gains Nominal, ZONE SMALLOFFICE WHOLEBUILDING - SM OFFICE A  - STORY GROUND SMALLOFFICE WHOLEBUILDING - SM OFFICE ELEC EQUIP,SMALL OFFICE BLDG EQUIP,ZONE SMALLOFFICE WHOLEBUILDING - SM OFFICE A  - STORY GROUND,66.65,3.6,717.401,10.764,200.000,0.000,0.500,0.000,0.500,General,0.000,717.401
 ElectricEquipment Internal Gains Nominal, ZONE SMALLOFFICE WHOLEBUILDING - SM OFFICE A END_A - STORY GROUND SMALLOFFICE WHOLEBUILDING - SM OFFICE ELEC EQUIP,SMALL OFFICE BLDG EQUIP,ZONE SMALLOFFICE WHOLEBUILDING - SM OFFICE A END_A - STORY GROUND,20.90,1.1,225.000,10.764,200.000,0.000,0.500,0.000,0.500,General,0.000,225.000
 ElectricEquipment Internal Gains Nominal, ZONE SMALLOFFICE WHOLEBUILDING - SM OFFICE A END_B - STORY GROUND SMALLOFFICE WHOLEBUILDING - SM OFFICE ELEC EQUIP,SMALL OFFICE BLDG EQUIP,ZONE SMALLOFFICE WHOLEBUILDING - SM OFFICE A END_B - STORY GROUND,20.90,1.1,225.000,10.764,200.000,0.000,0.500,0.000,0.500,General,0.000,225.000
 ElectricEquipment Internal Gains Nominal, ZONE SMALLOFFICE WHOLEBUILDING - SM OFFICE B  - STORY GROUND SMALLOFFICE WHOLEBUILDING - SM OFFICE ELEC EQUIP,SMALL OFFICE BLDG EQUIP,ZONE SMALLOFFICE WHOLEBUILDING - SM OFFICE B  - STORY GROUND,97.24,5.2,1046.663,10.764,200.000,0.000,0.500,0.000,0.500,General,0.000,1046.663
 ElectricEquipment Internal Gains Nominal, ZONE SMALLOFFICE WHOLEBUILDING - SM OFFICE B END_A - STORY GROUND SMALLOFFICE WHOLEBUILDING - SM OFFICE ELEC EQUIP,SMALL OFFICE BLDG EQUIP,ZONE SMALLOFFICE WHOLEBUILDING - SM OFFICE B END_A - STORY GROUND,30.50,1.6,328.267,10.764,200.000,0.000,0.500,0.000,0.500,General,0.000,328.267
 ElectricEquipment Internal Gains Nominal, ZONE SMALLOFFICE WHOLEBUILDING - SM OFFICE B END_B - STORY GROUND SMALLOFFICE WHOLEBUILDING - SM OFFICE ELEC EQUIP,SMALL OFFICE BLDG EQUIP,ZONE SMALLOFFICE WHOLEBUILDING - SM OFFICE B END_B - STORY GROUND,30.50,1.6,328.267,10.764,200.000,0.000,0.500,0.000,0.500,General,0.000,328.267
 ElectricEquipment Internal Gains Nominal, ZONE SMALLOFFICE WHOLEBUILDING - SM OFFICE C  - STORY GROUND SMALLOFFICE WHOLEBUILDING - SM OFFICE ELEC EQUIP,SMALL OFFICE BLDG EQUIP,ZONE SMALLOFFICE WHOLEBUILDING - SM OFFICE C  - STORY GROUND,66.65,3.6,717.401,10.764,200.000,0.000,0.500,0.000,0.500,General,0.000,717.401
 ElectricEquipment Internal Gains Nominal, ZONE SMALLOFFICE WHOLEBUILDING - SM OFFICE C END_A - STORY GROUND SMALLOFFICE WHOLEBUILDING - SM OFFICE ELEC EQUIP,SMALL OFFICE BLDG EQUIP,ZONE SMALLOFFICE WHOLEBUILDING - SM OFFICE C END_A - STORY GROUND,20.90,1.1,225.000,10.764,200.000,0.000,0.500,0.000,0.500,General,0.000,225.000
 ElectricEquipment Internal Gains Nominal, ZONE SMALLOFFICE WHOLEBUILDING - SM OFFICE C END_B - STORY GROUND SMALLOFFICE WHOLEBUILDING - SM OFFICE ELEC EQUIP,SMALL OFFICE BLDG EQUIP,ZONE SMALLOFFICE WHOLEBUILDING - SM OFFICE C END_B - STORY GROUND,20.90,1.1,225.000,10.764,200.000,0.000,0.500,0.000,0.500,General,0.000,225.000
! <Shadowing/Sun Position Calculations Annual Simulations>, Shading Calculation Method, Shading Calculation Update Frequency Method, Shading Calculation Update Frequency {days}, Maximum Figures in Shadow Overlap Calculations {}, Polygon Clipping Algorithm, Pixel Counting Resolution, Sky Diffuse Modeling Algorithm, Output External Shading Calculation Results, Disable Self-Shading Within Shading Zone Groups, Disable Self-Shading From Shading Zone Groups to Other Zones
Shadowing/Sun Position Calculations Annual Simulations,PolygonClipping,Periodic,20,15000,SutherlandHodgman,512,SimpleSkyDiffuseModeling,No,No,No
! <Water Heater Information>,Type,Name,Volume {m3},Maximum Capacity {W},Standard Rated Recovery Efficiency, Standard Rated Energy Factor
! <ZoneInfiltration Airflow Stats Nominal>,Name,Schedule Name,Zone Name, Zone Floor Area {m2}, # Zone Occupants,Design Volume Flow Rate {m3/s},Volume Flow Rate/Floor Area {m3/s-m2},Volume Flow Rate/Exterior Surface Area {m3/s-m2},ACH - Air Changes per Hour,Equation A - Constant Term Coefficient {},Equation B - Temperature Term Coefficient {1/C},Equation C - Velocity Term Coefficient {s/m}, Equation D - Velocity Squared Term Coefficient {s2/m2}
 ZoneInfiltration Airflow Stats Nominal, SMALLOFFICE WHOLEBUILDING - SM OFFICE A  - STORY GROUND INFILTRATION,ALWAYS ON DISCRETE,ZONE SMALLOFFICE WHOLEBUILDING - SM OFFICE A  - STORY GROUND,66.65,3.6,4.555E-002,6.835E-004,4.101E-004,0.807,1.000,0.000,0.000,0.000
 ZoneInfiltration Airflow Stats Nominal, SMALLOFFICE WHOLEBUILDING - SM OFFICE A END_A - STORY GROUND INFILTRATION,ALWAYS ON DISCRETE,ZONE SMALLOFFICE WHOLEBUILDING - SM OFFICE A END_A - STORY GROUND,20.90,1.1,2.857E-002,1.367E-003,5.858E-004,1.615,1.000,0.000,0.000,0.000
 ZoneInfiltration Airflow Stats Nominal, SMALLOFFICE WHOLEBUILDING - SM OFFICE A END_B - STORY GROUND INFILTRATION,ALWAYS ON DISCRETE,ZONE SMALLOFFICE WHOLEBUILDING - SM OFFICE A END_B - STORY GROUND,20.90,1.1,2.857E-002,1.367E-003,5.858E-004,1.615,1.000,0.000,0.000,0.000
 ZoneInfiltration Airflow Stats Nominal, SMALLOFFICE WHOLEBUILDING - SM OFFICE B END_A - STORY GROUND INFILTRATION,ALWAYS ON DISCRETE,ZONE SMALLOFFICE WHOLEBUILDING - SM OFFICE B END_A - STORY GROUND,30.50,1.6,2.084E-002,6.835E-004,4.101E-004,0.807,1.000,0.000,0.000,0.000
 ZoneInfiltration Airflow Stats Nominal, SMALLOFFICE WHOLEBUILDING - SM OFFICE B END_B - STORY GROUND INFILTRATION,ALWAYS ON DISCRETE,ZONE SMALLOFFICE WHOLEBUILDING - SM OFFICE B END_B - STORY GROUND,30.50,1.6,2.084E-002,6.835E-004,4.101E-004,0.807,1.000,0.000,0.000,0.000
 ZoneInfiltration Airflow Stats Nominal, SMALLOFFICE WHOLEBUILDING - SM OFFICE C  - STORY GROUND INFILTRATION,ALWAYS ON DISCRETE,ZONE SMALLOFFICE WHOLEBUILDING - SM OFFICE C  - STORY GROUND,66.65,3.6,4.555E-002,6.835E-004,4.101E-004,0.807,1.000,0.000,0.000,0.000
 ZoneInfiltration Airflow Stats Nominal, SMALLOFFICE WHOLEBUILDING - SM OFFICE C END_A - STORY GROUND INFILTRATION,ALWAYS ON DISCRETE,ZONE SMALLOFFICE WHOLEBUILDING - SM OFFICE C END_A - STORY GROUND,20.90,1.1,2.857E-002,1.367E-003,5.858E-004,1.615,1.000,0.000,0.000,0.000
 ZoneInfiltration Airflow Stats Nominal, SMALLOFFICE WHOLEBUILDING - SM OFFICE C END_B - STORY GROUND INFILTRATION,ALWAYS ON DISCRETE,ZONE SMALLOFFICE WHOLEBUILDING - SM OFFICE C END_B - STORY GROUND,20.90,1.1,2.857E-002,1.367E-003,5.858E-004,1.615,1.000,0.000,0.000,0.000
! <AirFlow Model>, Simple
 AirFlow Model, Simple
! <RoomAir Model>, Zone Name, Mixing/Mundt/UCSDDV/UCSDCV/UCSDUFI/UCSDUFE/User Defined
RoomAir Model,ZONE SMALLOFFICE WHOLEBUILDING - SM OFFICE A  - STORY GROUND,Mixing/Well-Stirred
RoomAir Model,ZONE SMALLOFFICE WHOLEBUILDING - SM OFFICE A END_A - STORY GROUND,Mixing/Well-Stirred
RoomAir Model,ZONE SMALLOFFICE WHOLEBUILDING - SM OFFICE A END_B - STORY GROUND,Mixing/Well-Stirred
RoomAir Model,ZONE SMALLOFFICE WHOLEBUILDING - SM OFFICE B  - STORY GROUND,Mixing/Well-Stirred
RoomAir Model,ZONE SMALLOFFICE WHOLEBUILDING - SM OFFICE B END_A - STORY GROUND,Mixing/Well-Stirred
RoomAir Model,ZONE SMALLOFFICE WHOLEBUILDING - SM OFFICE B END_B - STORY GROUND,Mixing/Well-Stirred
RoomAir Model,ZONE SMALLOFFICE WHOLEBUILDING - SM OFFICE C  - STORY GROUND,Mixing/Well-Stirred
RoomAir Model,ZONE SMALLOFFICE WHOLEBUILDING - SM OFFICE C END_A - STORY GROUND,Mixing/Well-Stirred
RoomAir Model,ZONE SMALLOFFICE WHOLEBUILDING - SM OFFICE C END_B - STORY GROUND,Mixing/Well-Stirred
! <AirflowNetwork Model:Control>, No Multizone or Distribution/Multizone with Distribution/Multizone without Distribution/Multizone with Distribution only during Fan Operation
AirflowNetwork Model:Control,NoMultizoneOrDistribution
! <Zone Volume Capacitance Multiplier>, Sensible Heat Capacity Multiplier, Moisture Capacity Multiplier, Carbon Dioxide Capacity Multiplier, Generic Contaminant Capacity Multiplier
Zone Volume Capacitance Multiplier,   1.000 ,   1.000,   1.000,   1.000
! <Load Timesteps in Zone Design Calculation Averaging Window>, Value
 Load Timesteps in Zone Design Calculation Averaging Window,    4
! <Heating Sizing Factor Information>, Sizing Factor ID, Value
 Heating Sizing Factor Information, Global,   1.2500    
 Heating Sizing Factor Information, Zone ZONE SMALLOFFICE WHOLEBUILDING - SM OFFICE A  - STORY GROUND,   1.2500    
 Heating Sizing Factor Information, Zone ZONE SMALLOFFICE WHOLEBUILDING - SM OFFICE A END_A - STORY GROUND,   1.2500    
 Heating Sizing Factor Information, Zone ZONE SMALLOFFICE WHOLEBUILDING - SM OFFICE A END_B - STORY GROUND,   1.2500    
 Heating Sizing Factor Information, Zone ZONE SMALLOFFICE WHOLEBUILDING - SM OFFICE B  - STORY GROUND,   1.2500    
 Heating Sizing Factor Information, Zone ZONE SMALLOFFICE WHOLEBUILDING - SM OFFICE B END_A - STORY GROUND,   1.2500    
 Heating Sizing Factor Information, Zone ZONE SMALLOFFICE WHOLEBUILDING - SM OFFICE B END_B - STORY GROUND,   1.2500    
 Heating Sizing Factor Information, Zone ZONE SMALLOFFICE WHOLEBUILDING - SM OFFICE C  - STORY GROUND,   1.2500    
 Heating Sizing Factor Information, Zone ZONE SMALLOFFICE WHOLEBUILDING - SM OFFICE C END_A - STORY GROUND,   1.2500    
 Heating Sizing Factor Information, Zone ZONE SMALLOFFICE WHOLEBUILDING - SM OFFICE C END_B - STORY GROUND,   1.2500    
! <Cooling Sizing Factor Information>, Sizing Factor ID, Value
 Cooling Sizing Factor Information, Global,   1.1500    
 Cooling Sizing Factor Information, Zone ZONE SMALLOFFICE WHOLEBUILDING - SM OFFICE A  - STORY GROUND,   1.1500    
 Cooling Sizing Factor Information, Zone ZONE SMALLOFFICE WHOLEBUILDING - SM OFFICE A END_A - STORY GROUND,   1.1500    
 Cooling Sizing Factor Information, Zone ZONE SMALLOFFICE WHOLEBUILDING - SM OFFICE A END_B - STORY GROUND,   1.1500    
 Cooling Sizing Factor Information, Zone ZONE SMALLOFFICE WHOLEBUILDING - SM OFFICE B  - STORY GROUND,   1.1500    
 Cooling Sizing Factor Information, Zone ZONE SMALLOFFICE WHOLEBUILDING - SM OFFICE B END_A - STORY GROUND,   1.1500    
 Cooling Sizing Factor Information, Zone ZONE SMALLOFFICE WHOLEBUILDING - SM OFFICE B END_B - STORY GROUND,   1.1500    
 Cooling Sizing Factor Information, Zone ZONE SMALLOFFICE WHOLEBUILDING - SM OFFICE C  - STORY GROUND,   1.1500    
 Cooling Sizing Factor Information, Zone ZONE SMALLOFFICE WHOLEBUILDING - SM OFFICE C END_A - STORY GROUND,   1.1500    
 Cooling Sizing Factor Information, Zone ZONE SMALLOFFICE WHOLEBUILDING - SM OFFICE C END_B - STORY GROUND,   1.1500    
! <Zone Sizing Information>, Zone Name, Load Type, Calc Des Load {W}, User Des Load {W}, Calc Des Air Flow Rate {m3/s}, User Des Air Flow Rate {m3/s}, Design Day Name, Date/Time of Peak, Temperature at Peak {C}, Humidity Ratio at Peak {kgWater/kgDryAir}, Floor Area {m2}, # Occupants, Calc Outdoor Air Flow Rate {m3/s}, Calc DOAS Heat Addition Rate {W}
 Zone Sizing Information, ZONE SMALLOFFICE WHOLEBUILDING - SM OFFICE A  - STORY GROUND, Cooling, 2952.05170, 3394.85946, 0.21410, 0.24621, CLIMATE ZONE 3 ANN CLG .4% CONDNS DB=>MWB, 8/21 13:30:00, 27.51500, 9.32312E-003, 66.64873, 3.58700, 3.38576E-002, 0.00000
 Zone Sizing Information, ZONE SMALLOFFICE WHOLEBUILDING - SM OFFICE A  - STORY GROUND, Heating, 2503.13095, 3128.91369, 7.02879E-002, 8.78599E-002, CLIMATE ZONE 3 ANN HTG 99.6% CONDNS DB, 1/21 24:00:00, 2.90000, 4.65595E-003, 66.64873, 3.58700, 3.38576E-002, 0.00000
 Zone Sizing Information, ZONE SMALLOFFICE WHOLEBUILDING - SM OFFICE A END_A - STORY GROUND, Cooling, 1324.67311, 1523.37408, 9.60735E-002, 0.11048, CLIMATE ZONE 3 ANN CLG .4% CONDNS DB=>MWB, 8/21 15:15:00, 27.58900, 9.32324E-003, 20.90318, 1.12500, 1.06188E-002, 0.00000
 Zone Sizing Information, ZONE SMALLOFFICE WHOLEBUILDING - SM OFFICE A END_A - STORY GROUND, Heating, 1306.34023, 1632.92528, 3.66777E-002, 4.58471E-002, CLIMATE ZONE 3 ANN HTG 99.6% CONDNS DB, 1/21 24:00:00, 2.90000, 4.65595E-003, 20.90318, 1.12500, 1.06188E-002, 0.00000
 Zone Sizing Information, ZONE SMALLOFFICE WHOLEBUILDING - SM OFFICE A END_B - STORY GROUND, Cooling, 1147.15478, 1319.22800, 8.31984E-002, 9.56782E-002, CLIMATE ZONE 3 ANN CLG .4% CONDNS DB=>MWB, 8/21 13:30:00, 27.51500, 9.32312E-003, 20.90318, 1.12500, 1.06188E-002, 0.00000
 Zone Sizing Information, ZONE SMALLOFFICE WHOLEBUILDING - SM OFFICE A END_B - STORY GROUND, Heating, 1305.60184, 1632.00230, 3.66570E-002, 4.58212E-002, CLIMATE ZONE 3 ANN HTG 99.6% CONDNS DB, 1/21 24:00:00, 2.90000, 4.65595E-003, 20.90318, 1.12500, 1.06188E-002, 0.00000
 Zone Sizing Information, ZONE SMALLOFFICE WHOLEBUILDING - SM OFFICE B  - STORY GROUND, Cooling, 2756.55434, 3170.03749, 0.19992, 0.22990, CLIMATE ZONE 3 ANN CLG .4% CONDNS DB=>MWB, 8/21 13:45:00, 27.60750, 9.32327E-003, 97.23822, 5.23332, 4.93970E-002, 0.00000
 Zone Sizing Information, ZONE SMALLOFFICE WHOLEBUILDING - SM OFFICE B  - STORY GROUND, Heating, 1378.50395, 1723.12994, 3.87167E-002, 4.93970E-002, CLIMATE ZONE 3 ANN HTG 99.6% CONDNS DB, 1/21 24:00:00, 2.90000, 4.65595E-003, 97.23822, 5.23332, 4.93970E-002, 0.00000
 Zone Sizing Information, ZONE SMALLOFFICE WHOLEBUILDING - SM OFFICE B END_A - STORY GROUND, Cooling, 1555.58797, 1788.92617, 0.11282, 0.12974, CLIMATE ZONE 3 ANN CLG .4% CONDNS DB=>MWB, 8/21 16:15:00, 27.10800, 9.32246E-003, 30.49703, 1.64134, 1.54925E-002, 0.00000
 Zone Sizing Information, ZONE SMALLOFFICE WHOLEBUILDING - SM OFFICE B END_A - STORY GROUND, Heating, 1179.64718, 1474.55897, 3.31248E-002, 4.14060E-002, CLIMATE ZONE 3 ANN HTG 99.6% CONDNS DB, 1/21 24:00:00, 2.90000, 4.65595E-003, 30.49703, 1.64134, 1.54925E-002, 0.00000
 Zone Sizing Information, ZONE SMALLOFFICE WHOLEBUILDING - SM OFFICE B END_B - STORY GROUND, Cooling, 1291.88103, 1485.66318, 9.36931E-002, 0.10775, CLIMATE ZONE 3 ANN CLG .4% CONDNS DB=>MWB, 8/21 10:30:00, 25.44300, 9.31979E-003, 30.49703, 1.64134, 1.54925E-002, 0.00000
 Zone Sizing Information, ZONE SMALLOFFICE WHOLEBUILDING - SM OFFICE B END_B - STORY GROUND, Heating, 1178.55941, 1473.19927, 3.30942E-002, 4.13678E-002, CLIMATE ZONE 3 ANN HTG 99.6% CONDNS DB, 1/21 24:00:00, 2.90000, 4.65595E-003, 30.49703, 1.64134, 1.54925E-002, 0.00000
 Zone Sizing Information, ZONE SMALLOFFICE WHOLEBUILDING - SM OFFICE C  - STORY GROUND, Cooling, 2276.39111, 2617.84978, 0.16510, 0.18986, CLIMATE ZONE 3 ANN CLG .4% CONDNS DB=>MWB, 8/21 14:00:00, 27.70000, 9.32342E-003, 66.64873, 3.58700, 3.38576E-002, 0.00000
 Zone Sizing Information, ZONE SMALLOFFICE WHOLEBUILDING - SM OFFICE C  - STORY GROUND, Heating, 2500.81934, 3126.02417, 7.02230E-002, 8.77788E-002, CLIMATE ZONE 3 ANN HTG 99.6% CONDNS DB, 1/21 24:00:00, 2.90000, 4.65595E-003, 66.64873, 3.58700, 3.38576E-002, 0.00000
 Zone Sizing Information, ZONE SMALLOFFICE WHOLEBUILDING - SM OFFICE C END_A - STORY GROUND, Cooling, 1182.58660, 1359.97460, 8.57684E-002, 9.86336E-002, CLIMATE ZONE 3 ANN CLG .4% CONDNS DB=>MWB, 8/21 16:00:00, 27.25600, 9.32270E-003, 20.90318, 1.12500, 1.06188E-002, 0.00000
 Zone Sizing Information, ZONE SMALLOFFICE WHOLEBUILDING - SM OFFICE C END_A - STORY GROUND, Heating, 1305.60045, 1632.00056, 3.66569E-002, 4.58212E-002, CLIMATE ZONE 3 ANN HTG 99.6% CONDNS DB, 1/21 24:00:00, 2.90000, 4.65595E-003, 20.90318, 1.12500, 1.06188E-002, 0.00000
 Zone Sizing Information, ZONE SMALLOFFICE WHOLEBUILDING - SM OFFICE C END_B - STORY GROUND, Cooling, 956.92926, 1100.46865, 6.94019E-002, 7.98122E-002, CLIMATE ZONE 3 ANN CLG .4% CONDNS DB=>MWB, 8/21 10:45:00, 25.72050, 9.32023E-003, 20.90318, 1.12500, 1.06188E-002, 0.00000
 Zone Sizing Information, ZONE SMALLOFFICE WHOLEBUILDING - SM OFFICE C END_B - STORY GROUND, Heating, 1304.86189, 1631.07736, 3.66362E-002, 4.57953E-002, CLIMATE ZONE 3 ANN HTG 99.6% CONDNS DB, 1/21 24:00:00, 2.90000, 4.65595E-003, 20.90318, 1.12500, 1.06188E-002, 0.00000
! <System Sizing Information>, System Name, Load Type, Peak Load Kind, User Design Capacity, Calc Des Air Flow Rate [m3/s], User Des Air Flow Rate [m3/s], Design Day Name, Date/Time of Peak
 System Sizing Information, ZONE SMALLOFFICE WHOLEBUILDING - SM OFFICE A  - STORY GROUND PSZ-AC, Cooling, Sensible, 3486.43, 0.24621, 0.24621, CLIMATE ZONE 3 ANN CLG .4% CONDNS DB=>MWB, 8/21 05:00:00
 System Sizing Information, ZONE SMALLOFFICE WHOLEBUILDING - SM OFFICE A  - STORY GROUND PSZ-AC, Heating, Sensible, 3824.52, 8.78599E-002, 8.78599E-002, CLIMATE ZONE 3 ANN HTG 99.6% CONDNS DB, 1/21 24:00:00
 System Sizing Information, ZONE SMALLOFFICE WHOLEBUILDING - SM OFFICE A END_A - STORY GROUND PSZ-AC, Cooling, Sensible, 1545.95, 0.11048, 0.11048, CLIMATE ZONE 3 ANN CLG .4% CONDNS DB=>MWB, 8/21 05:00:00
 System Sizing Information, ZONE SMALLOFFICE WHOLEBUILDING - SM OFFICE A END_A - STORY GROUND PSZ-AC, Heating, Sensible, 1841.56, 4.58471E-002, 4.58471E-002, CLIMATE ZONE 3 ANN HTG 99.6% CONDNS DB, 1/21 24:00:00
 System Sizing Information, ZONE SMALLOFFICE WHOLEBUILDING - SM OFFICE A END_B - STORY GROUND PSZ-AC, Cooling, Sensible, 1344.01, 9.56782E-002, 9.56782E-002, CLIMATE ZONE 3 ANN CLG .4% CONDNS DB=>MWB, 8/21 05:00:00
 System Sizing Information, ZONE SMALLOFFICE WHOLEBUILDING - SM OFFICE A END_B - STORY GROUND PSZ-AC, Heating, Sensible, 1840.65, 4.58212E-002, 4.58212E-002, CLIMATE ZONE 3 ANN HTG 99.6% CONDNS DB, 1/21 24:00:00
 System Sizing Information, ZONE SMALLOFFICE WHOLEBUILDING - SM OFFICE B  - STORY GROUND PSZ-AC, Cooling, Sensible, 3338.21, 0.22990, 0.22990, CLIMATE ZONE 3 ANN CLG .4% CONDNS DB=>MWB, 8/21 05:00:00
 System Sizing Information, ZONE SMALLOFFICE WHOLEBUILDING - SM OFFICE B  - STORY GROUND PSZ-AC, Heating, Sensible, 2814.89, 4.93970E-002, 4.93970E-002, CLIMATE ZONE 3 ANN HTG 99.6% CONDNS DB, 1/21 00:15:00
 System Sizing Information, ZONE SMALLOFFICE WHOLEBUILDING - SM OFFICE B END_A - STORY GROUND PSZ-AC, Cooling, Sensible, 1820.90, 0.12974, 0.12974, CLIMATE ZONE 3 ANN CLG .4% CONDNS DB=>MWB, 8/21 05:00:00
 System Sizing Information, ZONE SMALLOFFICE WHOLEBUILDING - SM OFFICE B END_A - STORY GROUND PSZ-AC, Heating, Sensible, 1792.23, 4.14060E-002, 4.14060E-002, CLIMATE ZONE 3 ANN HTG 99.6% CONDNS DB, 1/21 24:00:00
 System Sizing Information, ZONE SMALLOFFICE WHOLEBUILDING - SM OFFICE B END_B - STORY GROUND PSZ-AC, Cooling, Sensible, 1490.43, 0.10775, 0.10775, CLIMATE ZONE 3 ANN CLG .4% CONDNS DB=>MWB, 8/21 05:00:00
 System Sizing Information, ZONE SMALLOFFICE WHOLEBUILDING - SM OFFICE B END_B - STORY GROUND PSZ-AC, Heating, Sensible, 1790.89, 4.13678E-002, 4.13678E-002, CLIMATE ZONE 3 ANN HTG 99.6% CONDNS DB, 1/21 24:00:00
 System Sizing Information, ZONE SMALLOFFICE WHOLEBUILDING - SM OFFICE C  - STORY GROUND PSZ-AC, Cooling, Sensible, 2729.01, 0.18986, 0.18986, CLIMATE ZONE 3 ANN CLG .4% CONDNS DB=>MWB, 8/21 05:00:00
 System Sizing Information, ZONE SMALLOFFICE WHOLEBUILDING - SM OFFICE C  - STORY GROUND PSZ-AC, Heating, Sensible, 3821.67, 8.77788E-002, 8.77788E-002, CLIMATE ZONE 3 ANN HTG 99.6% CONDNS DB, 1/21 24:00:00
 System Sizing Information, ZONE SMALLOFFICE WHOLEBUILDING - SM OFFICE C END_A - STORY GROUND PSZ-AC, Cooling, Sensible, 1380.80, 9.86336E-002, 9.86336E-002, CLIMATE ZONE 3 ANN CLG .4% CONDNS DB=>MWB, 8/21 05:00:00
 System Sizing Information, ZONE SMALLOFFICE WHOLEBUILDING - SM OFFICE C END_A - STORY GROUND PSZ-AC, Heating, Sensible, 1840.64, 4.58212E-002, 4.58212E-002, CLIMATE ZONE 3 ANN HTG 99.6% CONDNS DB, 1/21 24:00:00
 System Sizing Information, ZONE SMALLOFFICE WHOLEBUILDING - SM OFFICE C END_B - STORY GROUND PSZ-AC, Cooling, Sensible, 1108.77, 7.98122E-002, 7.98122E-002, CLIMATE ZONE 3 ANN CLG .4% CONDNS DB=>MWB, 8/21 05:00:00
 System Sizing Information, ZONE SMALLOFFICE WHOLEBUILDING - SM OFFICE C END_B - STORY GROUND PSZ-AC, Heating, Sensible, 1839.73, 4.57953E-002, 4.57953E-002, CLIMATE ZONE 3 ANN HTG 99.6% CONDNS DB, 1/21 24:00:00
! <Component Sizing Information>, Component Type, Component Name, Input Field Description, Value
 Component Sizing Information, AirTerminal:SingleDuct:ConstantVolume:NoReheat, ZONE SMALLOFFICE WHOLEBUILDING - SM OFFICE A  - STORY GROUND PSZ-AC DIFFUSER, Design Size Maximum Air Flow Rate [m3/s], 0.24621
 Component Sizing Information, AirTerminal:SingleDuct:ConstantVolume:NoReheat, ZONE SMALLOFFICE WHOLEBUILDING - SM OFFICE A END_A - STORY GROUND PSZ-AC DIFFUSER, Design Size Maximum Air Flow Rate [m3/s], 0.11048
 Component Sizing Information, AirTerminal:SingleDuct:ConstantVolume:NoReheat, ZONE SMALLOFFICE WHOLEBUILDING - SM OFFICE A END_B - STORY GROUND PSZ-AC DIFFUSER, Design Size Maximum Air Flow Rate [m3/s], 9.56782E-002
 Component Sizing Information, AirTerminal:SingleDuct:ConstantVolume:NoReheat, ZONE SMALLOFFICE WHOLEBUILDING - SM OFFICE B  - STORY GROUND PSZ-AC DIFFUSER, Design Size Maximum Air Flow Rate [m3/s], 0.22990
 Component Sizing Information, AirTerminal:SingleDuct:ConstantVolume:NoReheat, ZONE SMALLOFFICE WHOLEBUILDING - SM OFFICE B END_A - STORY GROUND PSZ-AC DIFFUSER, Design Size Maximum Air Flow Rate [m3/s], 0.12974
 Component Sizing Information, AirTerminal:SingleDuct:ConstantVolume:NoReheat, ZONE SMALLOFFICE WHOLEBUILDING - SM OFFICE B END_B - STORY GROUND PSZ-AC DIFFUSER, Design Size Maximum Air Flow Rate [m3/s], 0.10775
 Component Sizing Information, AirTerminal:SingleDuct:ConstantVolume:NoReheat, ZONE SMALLOFFICE WHOLEBUILDING - SM OFFICE C  - STORY GROUND PSZ-AC DIFFUSER, Design Size Maximum Air Flow Rate [m3/s], 0.18986
 Component Sizing Information, AirTerminal:SingleDuct:ConstantVolume:NoReheat, ZONE SMALLOFFICE WHOLEBUILDING - SM OFFICE C END_A - STORY GROUND PSZ-AC DIFFUSER, Design Size Maximum Air Flow Rate [m3/s], 9.86336E-002
 Component Sizing Information, AirTerminal:SingleDuct:ConstantVolume:NoReheat, ZONE SMALLOFFICE WHOLEBUILDING - SM OFFICE C END_B - STORY GROUND PSZ-AC DIFFUSER, Design Size Maximum Air Flow Rate [m3/s], 7.98122E-002
 Component Sizing Information, AirLoopHVAC, ZONE SMALLOFFICE WHOLEBUILDING - SM OFFICE A  - STORY GROUND PSZ-AC, Sum of Air Terminal Maximum Heating Flow Rates [m3/s], 0.24621
 Component Sizing Information, AirLoopHVAC, ZONE SMALLOFFICE WHOLEBUILDING - SM OFFICE A  - STORY GROUND PSZ-AC, Sum of Air Terminal Minimum Heating Flow Rates [m3/s], 0.24621
 Component Sizing Information, AirLoopHVAC, ZONE SMALLOFFICE WHOLEBUILDING - SM OFFICE A  - STORY GROUND PSZ-AC, Sum of Air Terminal Maximum Flow Rates [m3/s], 0.24621
 Component Sizing Information, AirLoopHVAC, ZONE SMALLOFFICE WHOLEBUILDING - SM OFFICE A  - STORY GROUND PSZ-AC, Adjusted Heating Design Air Flow Rate [m3/s], 0.24621
 Component Sizing Information, AirLoopHVAC, ZONE SMALLOFFICE WHOLEBUILDING - SM OFFICE A  - STORY GROUND PSZ-AC, Adjusted Cooling Design Air Flow Rate [m3/s], 0.24621
 Component Sizing Information, AirLoopHVAC, ZONE SMALLOFFICE WHOLEBUILDING - SM OFFICE A  - STORY GROUND PSZ-AC, Adjusted Main Design Air Flow Rate [m3/s], 0.24621
 Component Sizing Information, AirLoopHVAC, ZONE SMALLOFFICE WHOLEBUILDING - SM OFFICE A  - STORY GROUND PSZ-AC, User Heating Air Flow Ratio [], 1.00000
 Component Sizing Information, AirLoopHVAC, ZONE SMALLOFFICE WHOLEBUILDING - SM OFFICE A  - STORY GROUND PSZ-AC, Calculated Heating Air Flow Ratio [], 1.00000
 Component Sizing Information, AirLoopHVAC, ZONE SMALLOFFICE WHOLEBUILDING - SM OFFICE A END_A - STORY GROUND PSZ-AC, Sum of Air Terminal Maximum Heating Flow Rates [m3/s], 0.11048
 Component Sizing Information, AirLoopHVAC, ZONE SMALLOFFICE WHOLEBUILDING - SM OFFICE A END_A - STORY GROUND PSZ-AC, Sum of Air Terminal Minimum Heating Flow Rates [m3/s], 0.11048
 Component Sizing Information, AirLoopHVAC, ZONE SMALLOFFICE WHOLEBUILDING - SM OFFICE A END_A - STORY GROUND PSZ-AC, Sum of Air Terminal Maximum Flow Rates [m3/s], 0.11048
 Component Sizing Information, AirLoopHVAC, ZONE SMALLOFFICE WHOLEBUILDING - SM OFFICE A END_A - STORY GROUND PSZ-AC, Adjusted Heating Design Air Flow Rate [m3/s], 0.11048
 Component Sizing Information, AirLoopHVAC, ZONE SMALLOFFICE WHOLEBUILDING - SM OFFICE A END_A - STORY GROUND PSZ-AC, Adjusted Cooling Design Air Flow Rate [m3/s], 0.11048
 Component Sizing Information, AirLoopHVAC, ZONE SMALLOFFICE WHOLEBUILDING - SM OFFICE A END_A - STORY GROUND PSZ-AC, Adjusted Main Design Air Flow Rate [m3/s], 0.11048
 Component Sizing Information, AirLoopHVAC, ZONE SMALLOFFICE WHOLEBUILDING - SM OFFICE A END_A - STORY GROUND PSZ-AC, User Heating Air Flow Ratio [], 1.00000
 Component Sizing Information, AirLoopHVAC, ZONE SMALLOFFICE WHOLEBUILDING - SM OFFICE A END_A - STORY GROUND PSZ-AC, Calculated Heating Air Flow Ratio [], 1.00000
 Component Sizing Information, AirLoopHVAC, ZONE SMALLOFFICE WHOLEBUILDING - SM OFFICE A END_B - STORY GROUND PSZ-AC, Sum of Air Terminal Maximum Heating Flow Rates [m3/s], 9.56782E-002
 Component Sizing Information, AirLoopHVAC, ZONE SMALLOFFICE WHOLEBUILDING - SM OFFICE A END_B - STORY GROUND PSZ-AC, Sum of Air Terminal Minimum Heating Flow Rates [m3/s], 9.56782E-002
 Component Sizing Information, AirLoopHVAC, ZONE SMALLOFFICE WHOLEBUILDING - SM OFFICE A END_B - STORY GROUND PSZ-AC, Sum of Air Terminal Maximum Flow Rates [m3/s], 9.56782E-002
 Component Sizing Information, AirLoopHVAC, ZONE SMALLOFFICE WHOLEBUILDING - SM OFFICE A END_B - STORY GROUND PSZ-AC, Adjusted Heating Design Air Flow Rate [m3/s], 9.56782E-002
 Component Sizing Information, AirLoopHVAC, ZONE SMALLOFFICE WHOLEBUILDING - SM OFFICE A END_B - STORY GROUND PSZ-AC, Adjusted Cooling Design Air Flow Rate [m3/s], 9.56782E-002
 Component Sizing Information, AirLoopHVAC, ZONE SMALLOFFICE WHOLEBUILDING - SM OFFICE A END_B - STORY GROUND PSZ-AC, Adjusted Main Design Air Flow Rate [m3/s], 9.56782E-002
 Component Sizing Information, AirLoopHVAC, ZONE SMALLOFFICE WHOLEBUILDING - SM OFFICE A END_B - STORY GROUND PSZ-AC, User Heating Air Flow Ratio [], 1.00000
 Component Sizing Information, AirLoopHVAC, ZONE SMALLOFFICE WHOLEBUILDING - SM OFFICE A END_B - STORY GROUND PSZ-AC, Calculated Heating Air Flow Ratio [], 1.00000
 Component Sizing Information, AirLoopHVAC, ZONE SMALLOFFICE WHOLEBUILDING - SM OFFICE B  - STORY GROUND PSZ-AC, Sum of Air Terminal Maximum Heating Flow Rates [m3/s], 0.22990
 Component Sizing Information, AirLoopHVAC, ZONE SMALLOFFICE WHOLEBUILDING - SM OFFICE B  - STORY GROUND PSZ-AC, Sum of Air Terminal Minimum Heating Flow Rates [m3/s], 0.22990
 Component Sizing Information, AirLoopHVAC, ZONE SMALLOFFICE WHOLEBUILDING - SM OFFICE B  - STORY GROUND PSZ-AC, Sum of Air Terminal Maximum Flow Rates [m3/s], 0.22990
 Component Sizing Information, AirLoopHVAC, ZONE SMALLOFFICE WHOLEBUILDING - SM OFFICE B  - STORY GROUND PSZ-AC, Adjusted Heating Design Air Flow Rate [m3/s], 0.22990
 Component Sizing Information, AirLoopHVAC, ZONE SMALLOFFICE WHOLEBUILDING - SM OFFICE B  - STORY GROUND PSZ-AC, Adjusted Cooling Design Air Flow Rate [m3/s], 0.22990
 Component Sizing Information, AirLoopHVAC, ZONE SMALLOFFICE WHOLEBUILDING - SM OFFICE B  - STORY GROUND PSZ-AC, Adjusted Main Design Air Flow Rate [m3/s], 0.22990
 Component Sizing Information, AirLoopHVAC, ZONE SMALLOFFICE WHOLEBUILDING - SM OFFICE B  - STORY GROUND PSZ-AC, User Heating Air Flow Ratio [], 1.00000
 Component Sizing Information, AirLoopHVAC, ZONE SMALLOFFICE WHOLEBUILDING - SM OFFICE B  - STORY GROUND PSZ-AC, Calculated Heating Air Flow Ratio [], 1.00000
 Component Sizing Information, AirLoopHVAC, ZONE SMALLOFFICE WHOLEBUILDING - SM OFFICE B END_A - STORY GROUND PSZ-AC, Sum of Air Terminal Maximum Heating Flow Rates [m3/s], 0.12974
 Component Sizing Information, AirLoopHVAC, ZONE SMALLOFFICE WHOLEBUILDING - SM OFFICE B END_A - STORY GROUND PSZ-AC, Sum of Air Terminal Minimum Heating Flow Rates [m3/s], 0.12974
 Component Sizing Information, AirLoopHVAC, ZONE SMALLOFFICE WHOLEBUILDING - SM OFFICE B END_A - STORY GROUND PSZ-AC, Sum of Air Terminal Maximum Flow Rates [m3/s], 0.12974
 Component Sizing Information, AirLoopHVAC, ZONE SMALLOFFICE WHOLEBUILDING - SM OFFICE B END_A - STORY GROUND PSZ-AC, Adjusted Heating Design Air Flow Rate [m3/s], 0.12974
 Component Sizing Information, AirLoopHVAC, ZONE SMALLOFFICE WHOLEBUILDING - SM OFFICE B END_A - STORY GROUND PSZ-AC, Adjusted Cooling Design Air Flow Rate [m3/s], 0.12974
 Component Sizing Information, AirLoopHVAC, ZONE SMALLOFFICE WHOLEBUILDING - SM OFFICE B END_A - STORY GROUND PSZ-AC, Adjusted Main Design Air Flow Rate [m3/s], 0.12974
 Component Sizing Information, AirLoopHVAC, ZONE SMALLOFFICE WHOLEBUILDING - SM OFFICE B END_A - STORY GROUND PSZ-AC, User Heating Air Flow Ratio [], 1.00000
 Component Sizing Information, AirLoopHVAC, ZONE SMALLOFFICE WHOLEBUILDING - SM OFFICE B END_A - STORY GROUND PSZ-AC, Calculated Heating Air Flow Ratio [], 1.00000
 Component Sizing Information, AirLoopHVAC, ZONE SMALLOFFICE WHOLEBUILDING - SM OFFICE B END_B - STORY GROUND PSZ-AC, Sum of Air Terminal Maximum Heating Flow Rates [m3/s], 0.10775
 Component Sizing Information, AirLoopHVAC, ZONE SMALLOFFICE WHOLEBUILDING - SM OFFICE B END_B - STORY GROUND PSZ-AC, Sum of Air Terminal Minimum Heating Flow Rates [m3/s], 0.10775
 Component Sizing Information, AirLoopHVAC, ZONE SMALLOFFICE WHOLEBUILDING - SM OFFICE B END_B - STORY GROUND PSZ-AC, Sum of Air Terminal Maximum Flow Rates [m3/s], 0.10775
 Component Sizing Information, AirLoopHVAC, ZONE SMALLOFFICE WHOLEBUILDING - SM OFFICE B END_B - STORY GROUND PSZ-AC, Adjusted Heating Design Air Flow Rate [m3/s], 0.10775
 Component Sizing Information, AirLoopHVAC, ZONE SMALLOFFICE WHOLEBUILDING - SM OFFICE B END_B - STORY GROUND PSZ-AC, Adjusted Cooling Design Air Flow Rate [m3/s], 0.10775
 Component Sizing Information, AirLoopHVAC, ZONE SMALLOFFICE WHOLEBUILDING - SM OFFICE B END_B - STORY GROUND PSZ-AC, Adjusted Main Design Air Flow Rate [m3/s], 0.10775
 Component Sizing Information, AirLoopHVAC, ZONE SMALLOFFICE WHOLEBUILDING - SM OFFICE B END_B - STORY GROUND PSZ-AC, User Heating Air Flow Ratio [], 1.00000
 Component Sizing Information, AirLoopHVAC, ZONE SMALLOFFICE WHOLEBUILDING - SM OFFICE B END_B - STORY GROUND PSZ-AC, Calculated Heating Air Flow Ratio [], 1.00000
 Component Sizing Information, AirLoopHVAC, ZONE SMALLOFFICE WHOLEBUILDING - SM OFFICE C  - STORY GROUND PSZ-AC, Sum of Air Terminal Maximum Heating Flow Rates [m3/s], 0.18986
 Component Sizing Information, AirLoopHVAC, ZONE SMALLOFFICE WHOLEBUILDING - SM OFFICE C  - STORY GROUND PSZ-AC, Sum of Air Terminal Minimum Heating Flow Rates [m3/s], 0.18986
 Component Sizing Information, AirLoopHVAC, ZONE SMALLOFFICE WHOLEBUILDING - SM OFFICE C  - STORY GROUND PSZ-AC, Sum of Air Terminal Maximum Flow Rates [m3/s], 0.18986
 Component Sizing Information, AirLoopHVAC, ZONE SMALLOFFICE WHOLEBUILDING - SM OFFICE C  - STORY GROUND PSZ-AC, Adjusted Heating Design Air Flow Rate [m3/s], 0.18986
 Component Sizing Information, AirLoopHVAC, ZONE SMALLOFFICE WHOLEBUILDING - SM OFFICE C  - STORY GROUND PSZ-AC, Adjusted Cooling Design Air Flow Rate [m3/s], 0.18986
 Component Sizing Information, AirLoopHVAC, ZONE SMALLOFFICE WHOLEBUILDING - SM OFFICE C  - STORY GROUND PSZ-AC, Adjusted Main Design Air Flow Rate [m3/s], 0.18986
 Component Sizing Information, AirLoopHVAC, ZONE SMALLOFFICE WHOLEBUILDING - SM OFFICE C  - STORY GROUND PSZ-AC, User Heating Air Flow Ratio [], 1.00000
 Component Sizing Information, AirLoopHVAC, ZONE SMALLOFFICE WHOLEBUILDING - SM OFFICE C  - STORY GROUND PSZ-AC, Calculated Heating Air Flow Ratio [], 1.00000
 Component Sizing Information, AirLoopHVAC, ZONE SMALLOFFICE WHOLEBUILDING - SM OFFICE C END_A - STORY GROUND PSZ-AC, Sum of Air Terminal Maximum Heating Flow Rates [m3/s], 9.86336E-002
 Component Sizing Information, AirLoopHVAC, ZONE SMALLOFFICE WHOLEBUILDING - SM OFFICE C END_A - STORY GROUND PSZ-AC, Sum of Air Terminal Minimum Heating Flow Rates [m3/s], 9.86336E-002
 Component Sizing Information, AirLoopHVAC, ZONE SMALLOFFICE WHOLEBUILDING - SM OFFICE C END_A - STORY GROUND PSZ-AC, Sum of Air Terminal Maximum Flow Rates [m3/s], 9.86336E-002
 Component Sizing Information, AirLoopHVAC, ZONE SMALLOFFICE WHOLEBUILDING - SM OFFICE C END_A - STORY GROUND PSZ-AC, Adjusted Heating Design Air Flow Rate [m3/s], 9.86336E-002
 Component Sizing Information, AirLoopHVAC, ZONE SMALLOFFICE WHOLEBUILDING - SM OFFICE C END_A - STORY GROUND PSZ-AC, Adjusted Cooling Design Air Flow Rate [m3/s], 9.86336E-002
 Component Sizing Information, AirLoopHVAC, ZONE SMALLOFFICE WHOLEBUILDING - SM OFFICE C END_A - STORY GROUND PSZ-AC, Adjusted Main Design Air Flow Rate [m3/s], 9.86336E-002
 Component Sizing Information, AirLoopHVAC, ZONE SMALLOFFICE WHOLEBUILDING - SM OFFICE C END_A - STORY GROUND PSZ-AC, User Heating Air Flow Ratio [], 1.00000
 Component Sizing Information, AirLoopHVAC, ZONE SMALLOFFICE WHOLEBUILDING - SM OFFICE C END_A - STORY GROUND PSZ-AC, Calculated Heating Air Flow Ratio [], 1.00000
 Component Sizing Information, AirLoopHVAC, ZONE SMALLOFFICE WHOLEBUILDING - SM OFFICE C END_B - STORY GROUND PSZ-AC, Sum of Air Terminal Maximum Heating Flow Rates [m3/s], 7.98122E-002
 Component Sizing Information, AirLoopHVAC, ZONE SMALLOFFICE WHOLEBUILDING - SM OFFICE C END_B - STORY GROUND PSZ-AC, Sum of Air Terminal Minimum Heating Flow Rates [m3/s], 7.98122E-002
 Component Sizing Information, AirLoopHVAC, ZONE SMALLOFFICE WHOLEBUILDING - SM OFFICE C END_B - STORY GROUND PSZ-AC, Sum of Air Terminal Maximum Flow Rates [m3/s], 7.98122E-002
 Component Sizing Information, AirLoopHVAC, ZONE SMALLOFFICE WHOLEBUILDING - SM OFFICE C END_B - STORY GROUND PSZ-AC, Adjusted Heating Design Air Flow Rate [m3/s], 7.98122E-002
 Component Sizing Information, AirLoopHVAC, ZONE SMALLOFFICE WHOLEBUILDING - SM OFFICE C END_B - STORY GROUND PSZ-AC, Adjusted Cooling Design Air Flow Rate [m3/s], 7.98122E-002
 Component Sizing Information, AirLoopHVAC, ZONE SMALLOFFICE WHOLEBUILDING - SM OFFICE C END_B - STORY GROUND PSZ-AC, Adjusted Main Design Air Flow Rate [m3/s], 7.98122E-002
 Component Sizing Information, AirLoopHVAC, ZONE SMALLOFFICE WHOLEBUILDING - SM OFFICE C END_B - STORY GROUND PSZ-AC, User Heating Air Flow Ratio [], 1.00000
 Component Sizing Information, AirLoopHVAC, ZONE SMALLOFFICE WHOLEBUILDING - SM OFFICE C END_B - STORY GROUND PSZ-AC, Calculated Heating Air Flow Ratio [], 1.00000
 Component Sizing Information, AirLoopHVAC, ZONE SMALLOFFICE WHOLEBUILDING - SM OFFICE A  - STORY GROUND PSZ-AC, Design Supply Air Flow Rate [m3/s], 0.24621
 Component Sizing Information, AirLoopHVAC, ZONE SMALLOFFICE WHOLEBUILDING - SM OFFICE A END_A - STORY GROUND PSZ-AC, Design Supply Air Flow Rate [m3/s], 0.11048
 Component Sizing Information, AirLoopHVAC, ZONE SMALLOFFICE WHOLEBUILDING - SM OFFICE A END_B - STORY GROUND PSZ-AC, Design Supply Air Flow Rate [m3/s], 9.56782E-002
 Component Sizing Information, AirLoopHVAC, ZONE SMALLOFFICE WHOLEBUILDING - SM OFFICE B  - STORY GROUND PSZ-AC, Design Supply Air Flow Rate [m3/s], 0.22990
 Component Sizing Information, AirLoopHVAC, ZONE SMALLOFFICE WHOLEBUILDING - SM OFFICE B END_A - STORY GROUND PSZ-AC, Design Supply Air Flow Rate [m3/s], 0.12974
 Component Sizing Information, AirLoopHVAC, ZONE SMALLOFFICE WHOLEBUILDING - SM OFFICE B END_B - STORY GROUND PSZ-AC, Design Supply Air Flow Rate [m3/s], 0.10775
 Component Sizing Information, AirLoopHVAC, ZONE SMALLOFFICE WHOLEBUILDING - SM OFFICE C  - STORY GROUND PSZ-AC, Design Supply Air Flow Rate [m3/s], 0.18986
 Component Sizing Information, AirLoopHVAC, ZONE SMALLOFFICE WHOLEBUILDING - SM OFFICE C END_A - STORY GROUND PSZ-AC, Design Supply Air Flow Rate [m3/s], 9.86336E-002
 Component Sizing Information, AirLoopHVAC, ZONE SMALLOFFICE WHOLEBUILDING - SM OFFICE C END_B - STORY GROUND PSZ-AC, Design Supply Air Flow Rate [m3/s], 7.98122E-002
!<Controller:MechanicalVentilation>,Name,Availability Schedule Name,Demand Controlled Ventilation {Yes/No},System Outdoor Air Method,Zone Maximum Outdoor Air Fraction,Number of Zones,Zone Name,DSOA Name,DSZAD Name
 Controller:MechanicalVentilation,CONTROLLER MECHANICAL VENTILATION 6,ALWAYS ON DISCRETE,No,ZoneSum,1.00,1,ZONE SMALLOFFICE WHOLEBUILDING - SM OFFICE A  - STORY GROUND,SMALLOFFICE WHOLEBUILDING - SM OFFICE VENTILATION,
 Controller:MechanicalVentilation,CONTROLLER MECHANICAL VENTILATION 9,ALWAYS ON DISCRETE,No,ZoneSum,1.00,1,ZONE SMALLOFFICE WHOLEBUILDING - SM OFFICE A END_A - STORY GROUND,SMALLOFFICE WHOLEBUILDING - SM OFFICE VENTILATION,
 Controller:MechanicalVentilation,CONTROLLER MECHANICAL VENTILATION 1,ALWAYS ON DISCRETE,No,ZoneSum,1.00,1,ZONE SMALLOFFICE WHOLEBUILDING - SM OFFICE A END_B - STORY GROUND,SMALLOFFICE WHOLEBUILDING - SM OFFICE VENTILATION,
 Controller:MechanicalVentilation,CONTROLLER MECHANICAL VENTILATION 5,ALWAYS ON DISCRETE,No,ZoneSum,1.00,1,ZONE SMALLOFFICE WHOLEBUILDING - SM OFFICE B  - STORY GROUND,SMALLOFFICE WHOLEBUILDING - SM OFFICE VENTILATION,
 Controller:MechanicalVentilation,CONTROLLER MECHANICAL VENTILATION 8,ALWAYS ON DISCRETE,No,ZoneSum,1.00,1,ZONE SMALLOFFICE WHOLEBUILDING - SM OFFICE B END_A - STORY GROUND,SMALLOFFICE WHOLEBUILDING - SM OFFICE VENTILATION,
 Controller:MechanicalVentilation,CONTROLLER MECHANICAL VENTILATION 3,ALWAYS ON DISCRETE,No,ZoneSum,1.00,1,ZONE SMALLOFFICE WHOLEBUILDING - SM OFFICE B END_B - STORY GROUND,SMALLOFFICE WHOLEBUILDING - SM OFFICE VENTILATION,
 Controller:MechanicalVentilation,CONTROLLER MECHANICAL VENTILATION 4,ALWAYS ON DISCRETE,No,ZoneSum,1.00,1,ZONE SMALLOFFICE WHOLEBUILDING - SM OFFICE C  - STORY GROUND,SMALLOFFICE WHOLEBUILDING - SM OFFICE VENTILATION,
 Controller:MechanicalVentilation,CONTROLLER MECHANICAL VENTILATION 7,ALWAYS ON DISCRETE,No,ZoneSum,1.00,1,ZONE SMALLOFFICE WHOLEBUILDING - SM OFFICE C END_A - STORY GROUND,SMALLOFFICE WHOLEBUILDING - SM OFFICE VENTILATION,
 Controller:MechanicalVentilation,CONTROLLER MECHANICAL VENTILATION 2,ALWAYS ON DISCRETE,No,ZoneSum,1.00,1,ZONE SMALLOFFICE WHOLEBUILDING - SM OFFICE C END_B - STORY GROUND,SMALLOFFICE WHOLEBUILDING - SM OFFICE VENTILATION,
 Component Sizing Information, Controller:OutdoorAir, ZONE SMALLOFFICE WHOLEBUILDING - SM OFFICE A  - STORY GROUND PSZ-AC OA SYSTEM CONTROLLER, Maximum Outdoor Air Flow Rate [m3/s], 0.24621
 Component Sizing Information, Controller:OutdoorAir, ZONE SMALLOFFICE WHOLEBUILDING - SM OFFICE A  - STORY GROUND PSZ-AC OA SYSTEM CONTROLLER, Minimum Outdoor Air Flow Rate [m3/s], 3.38576E-002
 Component Sizing Information, AirLoopHVAC:UnitarySystem, ZONE SMALLOFFICE WHOLEBUILDING - SM OFFICE A  - STORY GROUND PSZ-AC UNITARY AC, Design Size Supply Air Flow Rate [m3/s], 0.24621
 Component Sizing Information, AirLoopHVAC:UnitarySystem, ZONE SMALLOFFICE WHOLEBUILDING - SM OFFICE A  - STORY GROUND PSZ-AC UNITARY AC, Design Size Heating Supply Air Flow Rate [m3/s], 0.24621
 Component Sizing Information, AirLoopHVAC:UnitarySystem, ZONE SMALLOFFICE WHOLEBUILDING - SM OFFICE A  - STORY GROUND PSZ-AC UNITARY AC, Design Size Cooling Supply Air Flow Rate [m3/s], 0.24621
 Component Sizing Information, AirLoopHVAC:UnitarySystem, ZONE SMALLOFFICE WHOLEBUILDING - SM OFFICE A  - STORY GROUND PSZ-AC UNITARY AC, User-Specified No Load Supply Air Flow Rate [m3/s], 0.00000
 Component Sizing Information, AirLoopHVAC:UnitarySystem, ZONE SMALLOFFICE WHOLEBUILDING - SM OFFICE A  - STORY GROUND PSZ-AC UNITARY AC, Design Size Nominal Cooling Capacity [W], 4144.82033
 Component Sizing Information, AirLoopHVAC:UnitarySystem, ZONE SMALLOFFICE WHOLEBUILDING - SM OFFICE A  - STORY GROUND PSZ-AC UNITARY AC, Design Size Nominal Heating Capacity [W], 9381.73346
 Component Sizing Information, AirLoopHVAC:UnitarySystem, ZONE SMALLOFFICE WHOLEBUILDING - SM OFFICE A  - STORY GROUND PSZ-AC UNITARY AC, Design Size Maximum Supply Air Temperature [C], 50.00000
 Component Sizing Information, AirLoopHVAC:UnitarySystem, ZONE SMALLOFFICE WHOLEBUILDING - SM OFFICE A  - STORY GROUND PSZ-AC UNITARY AC, User-Specified Maximum Supply Air Temperature [C], 80.00000
 Component Sizing Information, AirLoopHVAC:UnitarySystem, ZONE SMALLOFFICE WHOLEBUILDING - SM OFFICE A  - STORY GROUND PSZ-AC UNITARY AC, User-Specified Supplemental Heating Coil Nominal Capacity [W], 9381.73346
 Component Sizing Information, AirLoopHVAC:UnitarySystem, ZONE SMALLOFFICE WHOLEBUILDING - SM OFFICE A  - STORY GROUND PSZ-AC UNITARY AC, Fraction of Supply Air Flow That Goes Through the Controlling Zone, 1.00000
 Component Sizing Information, Coil:Cooling:DX:SingleSpeed, ZONE SMALLOFFICE WHOLEBUILDING - SM OFFICE A  - STORY GROUND PSZ-AC 1SPD DX AC CLG COIL 14KBTU/HR 9.7SEER, Design Size Rated Air Flow Rate [m3/s], 0.24621
 Component Sizing Information, Coil:Cooling:DX:SingleSpeed, ZONE SMALLOFFICE WHOLEBUILDING - SM OFFICE A  - STORY GROUND PSZ-AC 1SPD DX AC CLG COIL 14KBTU/HR 9.7SEER, Design Size Gross Rated Total Cooling Capacity [W], 4144.82033
 Component Sizing Information, Coil:Cooling:DX:SingleSpeed, ZONE SMALLOFFICE WHOLEBUILDING - SM OFFICE A  - STORY GROUND PSZ-AC 1SPD DX AC CLG COIL 14KBTU/HR 9.7SEER, Design Size Gross Rated Sensible Heat Ratio, 0.80052
! <DX Cooling Coil Standard Rating Information>, Component Type, Component Name, Standard Rating (Net) Cooling Capacity {W}, Standard Rated Net COP {W/W}, EER {Btu/W-h}, SEER User {Btu/W-h}, SEER Standard {Btu/W-h}, IEER {Btu/W-h}
 DX Cooling Coil Standard Rating Information, Coil:Cooling:DX:SingleSpeed, ZONE SMALLOFFICE WHOLEBUILDING - SM OFFICE A  - STORY GROUND PSZ-AC 1SPD DX AC CLG COIL 14KBTU/HR 9.7SEER, 3954.0, 2.62, 8.95, 10.28, 9.40, 9.76
 Component Sizing Information, Coil:Heating:Fuel, ZONE SMALLOFFICE WHOLEBUILDING - SM OFFICE A  - STORY GROUND PSZ-AC GAS HTG COIL, Design Size Nominal Capacity [W], 9381.73346
 Component Sizing Information, Fan:OnOff, ZONE SMALLOFFICE WHOLEBUILDING - SM OFFICE A  - STORY GROUND PSZ-AC FAN, Design Size Maximum Flow Rate [m3/s], 0.24621
 Component Sizing Information, Coil:Heating:Electric, ZONE SMALLOFFICE WHOLEBUILDING - SM OFFICE A  - STORY GROUND PSZ-AC ELECTRIC BACKUP HTG COIL, Design Size Nominal Capacity [W], 9381.73346
 Component Sizing Information, Controller:OutdoorAir, ZONE SMALLOFFICE WHOLEBUILDING - SM OFFICE A END_A - STORY GROUND PSZ-AC OA SYSTEM CONTROLLER, Maximum Outdoor Air Flow Rate [m3/s], 0.11048
 Component Sizing Information, Controller:OutdoorAir, ZONE SMALLOFFICE WHOLEBUILDING - SM OFFICE A END_A - STORY GROUND PSZ-AC OA SYSTEM CONTROLLER, Minimum Outdoor Air Flow Rate [m3/s], 1.06188E-002
 Component Sizing Information, AirLoopHVAC:UnitarySystem, ZONE SMALLOFFICE WHOLEBUILDING - SM OFFICE A END_A - STORY GROUND PSZ-AC UNITARY AC, Design Size Supply Air Flow Rate [m3/s], 0.11048
 Component Sizing Information, AirLoopHVAC:UnitarySystem, ZONE SMALLOFFICE WHOLEBUILDING - SM OFFICE A END_A - STORY GROUND PSZ-AC UNITARY AC, Design Size Heating Supply Air Flow Rate [m3/s], 0.11048
 Component Sizing Information, AirLoopHVAC:UnitarySystem, ZONE SMALLOFFICE WHOLEBUILDING - SM OFFICE A END_A - STORY GROUND PSZ-AC UNITARY AC, Design Size Cooling Supply Air Flow Rate [m3/s], 0.11048
 Component Sizing Information, AirLoopHVAC:UnitarySystem, ZONE SMALLOFFICE WHOLEBUILDING - SM OFFICE A END_A - STORY GROUND PSZ-AC UNITARY AC, User-Specified No Load Supply Air Flow Rate [m3/s], 0.00000
 Component Sizing Information, AirLoopHVAC:UnitarySystem, ZONE SMALLOFFICE WHOLEBUILDING - SM OFFICE A END_A - STORY GROUND PSZ-AC UNITARY AC, Design Size Nominal Cooling Capacity [W], 1829.87666
 Component Sizing Information, AirLoopHVAC:UnitarySystem, ZONE SMALLOFFICE WHOLEBUILDING - SM OFFICE A END_A - STORY GROUND PSZ-AC UNITARY AC, Design Size Nominal Heating Capacity [W], 4110.19425
 Component Sizing Information, AirLoopHVAC:UnitarySystem, ZONE SMALLOFFICE WHOLEBUILDING - SM OFFICE A END_A - STORY GROUND PSZ-AC UNITARY AC, Design Size Maximum Supply Air Temperature [C], 50.00000
 Component Sizing Information, AirLoopHVAC:UnitarySystem, ZONE SMALLOFFICE WHOLEBUILDING - SM OFFICE A END_A - STORY GROUND PSZ-AC UNITARY AC, User-Specified Maximum Supply Air Temperature [C], 80.00000
 Component Sizing Information, AirLoopHVAC:UnitarySystem, ZONE SMALLOFFICE WHOLEBUILDING - SM OFFICE A END_A - STORY GROUND PSZ-AC UNITARY AC, User-Specified Supplemental Heating Coil Nominal Capacity [W], 4110.19425
 Component Sizing Information, AirLoopHVAC:UnitarySystem, ZONE SMALLOFFICE WHOLEBUILDING - SM OFFICE A END_A - STORY GROUND PSZ-AC UNITARY AC, Fraction of Supply Air Flow That Goes Through the Controlling Zone, 1.00000
 Component Sizing Information, Coil:Cooling:DX:SingleSpeed, ZONE SMALLOFFICE WHOLEBUILDING - SM OFFICE A END_A - STORY GROUND PSZ-AC 1SPD DX AC CLG COIL 6KBTU/HR 9.7SEER, Design Size Rated Air Flow Rate [m3/s], 0.11048
 Component Sizing Information, Coil:Cooling:DX:SingleSpeed, ZONE SMALLOFFICE WHOLEBUILDING - SM OFFICE A END_A - STORY GROUND PSZ-AC 1SPD DX AC CLG COIL 6KBTU/HR 9.7SEER, Design Size Gross Rated Total Cooling Capacity [W], 1829.87666
 Component Sizing Information, Coil:Cooling:DX:SingleSpeed, ZONE SMALLOFFICE WHOLEBUILDING - SM OFFICE A END_A - STORY GROUND PSZ-AC 1SPD DX AC CLG COIL 6KBTU/HR 9.7SEER, Design Size Gross Rated Sensible Heat Ratio, 0.80046
 DX Cooling Coil Standard Rating Information, Coil:Cooling:DX:SingleSpeed, ZONE SMALLOFFICE WHOLEBUILDING - SM OFFICE A END_A - STORY GROUND PSZ-AC 1SPD DX AC CLG COIL 6KBTU/HR 9.7SEER, 1744.3, 2.62, 8.93, 10.25, 9.37, 9.72
 Component Sizing Information, Coil:Heating:Fuel, ZONE SMALLOFFICE WHOLEBUILDING - SM OFFICE A END_A - STORY GROUND PSZ-AC GAS HTG COIL, Design Size Nominal Capacity [W], 4110.19425
 Component Sizing Information, Fan:OnOff, ZONE SMALLOFFICE WHOLEBUILDING - SM OFFICE A END_A - STORY GROUND PSZ-AC FAN, Design Size Maximum Flow Rate [m3/s], 0.11048
 Component Sizing Information, Coil:Heating:Electric, ZONE SMALLOFFICE WHOLEBUILDING - SM OFFICE A END_A - STORY GROUND PSZ-AC ELECTRIC BACKUP HTG COIL, Design Size Nominal Capacity [W], 4110.19425
 Component Sizing Information, Controller:OutdoorAir, ZONE SMALLOFFICE WHOLEBUILDING - SM OFFICE A END_B - STORY GROUND PSZ-AC OA SYSTEM CONTROLLER, Maximum Outdoor Air Flow Rate [m3/s], 9.56782E-002
 Component Sizing Information, Controller:OutdoorAir, ZONE SMALLOFFICE WHOLEBUILDING - SM OFFICE A END_B - STORY GROUND PSZ-AC OA SYSTEM CONTROLLER, Minimum Outdoor Air Flow Rate [m3/s], 1.06188E-002
 Component Sizing Information, AirLoopHVAC:UnitarySystem, ZONE SMALLOFFICE WHOLEBUILDING - SM OFFICE A END_B - STORY GROUND PSZ-AC UNITARY AC, Design Size Supply Air Flow Rate [m3/s], 9.56782E-002
 Component Sizing Information, AirLoopHVAC:UnitarySystem, ZONE SMALLOFFICE WHOLEBUILDING - SM OFFICE A END_B - STORY GROUND PSZ-AC UNITARY AC, Design Size Heating Supply Air Flow Rate [m3/s], 9.56782E-002
 Component Sizing Information, AirLoopHVAC:UnitarySystem, ZONE SMALLOFFICE WHOLEBUILDING - SM OFFICE A END_B - STORY GROUND PSZ-AC UNITARY AC, Design Size Cooling Supply Air Flow Rate [m3/s], 9.56782E-002
 Component Sizing Information, AirLoopHVAC:UnitarySystem, ZONE SMALLOFFICE WHOLEBUILDING - SM OFFICE A END_B - STORY GROUND PSZ-AC UNITARY AC, User-Specified No Load Supply Air Flow Rate [m3/s], 0.00000
 Component Sizing Information, AirLoopHVAC:UnitarySystem, ZONE SMALLOFFICE WHOLEBUILDING - SM OFFICE A END_B - STORY GROUND PSZ-AC UNITARY AC, Design Size Nominal Cooling Capacity [W], 1599.10958
 Component Sizing Information, AirLoopHVAC:UnitarySystem, ZONE SMALLOFFICE WHOLEBUILDING - SM OFFICE A END_B - STORY GROUND PSZ-AC UNITARY AC, Design Size Nominal Heating Capacity [W], 3590.52239
 Component Sizing Information, AirLoopHVAC:UnitarySystem, ZONE SMALLOFFICE WHOLEBUILDING - SM OFFICE A END_B - STORY GROUND PSZ-AC UNITARY AC, Design Size Maximum Supply Air Temperature [C], 50.00000
 Component Sizing Information, AirLoopHVAC:UnitarySystem, ZONE SMALLOFFICE WHOLEBUILDING - SM OFFICE A END_B - STORY GROUND PSZ-AC UNITARY AC, User-Specified Maximum Supply Air Temperature [C], 80.00000
 Component Sizing Information, AirLoopHVAC:UnitarySystem, ZONE SMALLOFFICE WHOLEBUILDING - SM OFFICE A END_B - STORY GROUND PSZ-AC UNITARY AC, User-Specified Supplemental Heating Coil Nominal Capacity [W], 3590.52239
 Component Sizing Information, AirLoopHVAC:UnitarySystem, ZONE SMALLOFFICE WHOLEBUILDING - SM OFFICE A END_B - STORY GROUND PSZ-AC UNITARY AC, Fraction of Supply Air Flow That Goes Through the Controlling Zone, 1.00000
 Component Sizing Information, Coil:Cooling:DX:SingleSpeed, ZONE SMALLOFFICE WHOLEBUILDING - SM OFFICE A END_B - STORY GROUND PSZ-AC 1SPD DX AC CLG COIL 5KBTU/HR 9.7SEER, Design Size Rated Air Flow Rate [m3/s], 9.56782E-002
 Component Sizing Information, Coil:Cooling:DX:SingleSpeed, ZONE SMALLOFFICE WHOLEBUILDING - SM OFFICE A END_B - STORY GROUND PSZ-AC 1SPD DX AC CLG COIL 5KBTU/HR 9.7SEER, Design Size Gross Rated Total Cooling Capacity [W], 1599.10958
 Component Sizing Information, Coil:Cooling:DX:SingleSpeed, ZONE SMALLOFFICE WHOLEBUILDING - SM OFFICE A END_B - STORY GROUND PSZ-AC 1SPD DX AC CLG COIL 5KBTU/HR 9.7SEER, Design Size Gross Rated Sensible Heat Ratio, 0.80014
 DX Cooling Coil Standard Rating Information, Coil:Cooling:DX:SingleSpeed, ZONE SMALLOFFICE WHOLEBUILDING - SM OFFICE A END_B - STORY GROUND PSZ-AC 1SPD DX AC CLG COIL 5KBTU/HR 9.7SEER, 1525.0, 2.62, 8.94, 10.26, 9.39, 9.74
 Component Sizing Information, Coil:Heating:Fuel, ZONE SMALLOFFICE WHOLEBUILDING - SM OFFICE A END_B - STORY GROUND PSZ-AC GAS HTG COIL, Design Size Nominal Capacity [W], 3590.52239
 Component Sizing Information, Fan:OnOff, ZONE SMALLOFFICE WHOLEBUILDING - SM OFFICE A END_B - STORY GROUND PSZ-AC FAN, Design Size Maximum Flow Rate [m3/s], 9.56782E-002
 Component Sizing Information, Coil:Heating:Electric, ZONE SMALLOFFICE WHOLEBUILDING - SM OFFICE A END_B - STORY GROUND PSZ-AC ELECTRIC BACKUP HTG COIL, Design Size Nominal Capacity [W], 3590.52239
 Component Sizing Information, Controller:OutdoorAir, ZONE SMALLOFFICE WHOLEBUILDING - SM OFFICE B  - STORY GROUND PSZ-AC OA SYSTEM CONTROLLER, Maximum Outdoor Air Flow Rate [m3/s], 0.22990
 Component Sizing Information, Controller:OutdoorAir, ZONE SMALLOFFICE WHOLEBUILDING - SM OFFICE B  - STORY GROUND PSZ-AC OA SYSTEM CONTROLLER, Minimum Outdoor Air Flow Rate [m3/s], 4.93970E-002
 Component Sizing Information, AirLoopHVAC:UnitarySystem, ZONE SMALLOFFICE WHOLEBUILDING - SM OFFICE B  - STORY GROUND PSZ-AC UNITARY AC, Design Size Supply Air Flow Rate [m3/s], 0.22990
 Component Sizing Information, AirLoopHVAC:UnitarySystem, ZONE SMALLOFFICE WHOLEBUILDING - SM OFFICE B  - STORY GROUND PSZ-AC UNITARY AC, Design Size Heating Supply Air Flow Rate [m3/s], 0.22990
 Component Sizing Information, AirLoopHVAC:UnitarySystem, ZONE SMALLOFFICE WHOLEBUILDING - SM OFFICE B  - STORY GROUND PSZ-AC UNITARY AC, Design Size Cooling Supply Air Flow Rate [m3/s], 0.22990
 Component Sizing Information, AirLoopHVAC:UnitarySystem, ZONE SMALLOFFICE WHOLEBUILDING - SM OFFICE B  - STORY GROUND PSZ-AC UNITARY AC, User-Specified No Load Supply Air Flow Rate [m3/s], 0.00000
 Component Sizing Information, AirLoopHVAC:UnitarySystem, ZONE SMALLOFFICE WHOLEBUILDING - SM OFFICE B  - STORY GROUND PSZ-AC UNITARY AC, Design Size Nominal Cooling Capacity [W], 3998.90791
 Component Sizing Information, AirLoopHVAC:UnitarySystem, ZONE SMALLOFFICE WHOLEBUILDING - SM OFFICE B  - STORY GROUND PSZ-AC UNITARY AC, Design Size Nominal Heating Capacity [W], 9148.19026
 Component Sizing Information, AirLoopHVAC:UnitarySystem, ZONE SMALLOFFICE WHOLEBUILDING - SM OFFICE B  - STORY GROUND PSZ-AC UNITARY AC, Design Size Maximum Supply Air Temperature [C], 50.00000
 Component Sizing Information, AirLoopHVAC:UnitarySystem, ZONE SMALLOFFICE WHOLEBUILDING - SM OFFICE B  - STORY GROUND PSZ-AC UNITARY AC, User-Specified Maximum Supply Air Temperature [C], 80.00000
 Component Sizing Information, AirLoopHVAC:UnitarySystem, ZONE SMALLOFFICE WHOLEBUILDING - SM OFFICE B  - STORY GROUND PSZ-AC UNITARY AC, User-Specified Supplemental Heating Coil Nominal Capacity [W], 9148.19026
 Component Sizing Information, AirLoopHVAC:UnitarySystem, ZONE SMALLOFFICE WHOLEBUILDING - SM OFFICE B  - STORY GROUND PSZ-AC UNITARY AC, Fraction of Supply Air Flow That Goes Through the Controlling Zone, 1.00000
 Component Sizing Information, Coil:Cooling:DX:SingleSpeed, ZONE SMALLOFFICE WHOLEBUILDING - SM OFFICE B  - STORY GROUND PSZ-AC 1SPD DX AC CLG COIL 14KBTU/HR 9.7SEER, Design Size Rated Air Flow Rate [m3/s], 0.22990
 Component Sizing Information, Coil:Cooling:DX:SingleSpeed, ZONE SMALLOFFICE WHOLEBUILDING - SM OFFICE B  - STORY GROUND PSZ-AC 1SPD DX AC CLG COIL 14KBTU/HR 9.7SEER, Design Size Gross Rated Total Cooling Capacity [W], 3998.90791
 Component Sizing Information, Coil:Cooling:DX:SingleSpeed, ZONE SMALLOFFICE WHOLEBUILDING - SM OFFICE B  - STORY GROUND PSZ-AC 1SPD DX AC CLG COIL 14KBTU/HR 9.7SEER, Design Size Gross Rated Sensible Heat Ratio, 0.80089
 DX Cooling Coil Standard Rating Information, Coil:Cooling:DX:SingleSpeed, ZONE SMALLOFFICE WHOLEBUILDING - SM OFFICE B  - STORY GROUND PSZ-AC 1SPD DX AC CLG COIL 14KBTU/HR 9.7SEER, 3820.7, 2.64, 9.00, 10.34, 9.46, 9.85
 Component Sizing Information, Coil:Heating:Fuel, ZONE SMALLOFFICE WHOLEBUILDING - SM OFFICE B  - STORY GROUND PSZ-AC GAS HTG COIL, Design Size Nominal Capacity [W], 9148.19026
 Component Sizing Information, Fan:OnOff, ZONE SMALLOFFICE WHOLEBUILDING - SM OFFICE B  - STORY GROUND PSZ-AC FAN, Design Size Maximum Flow Rate [m3/s], 0.22990
 Component Sizing Information, Coil:Heating:Electric, ZONE SMALLOFFICE WHOLEBUILDING - SM OFFICE B  - STORY GROUND PSZ-AC ELECTRIC BACKUP HTG COIL, Design Size Nominal Capacity [W], 9148.19026
 Component Sizing Information, Controller:OutdoorAir, ZONE SMALLOFFICE WHOLEBUILDING - SM OFFICE B END_A - STORY GROUND PSZ-AC OA SYSTEM CONTROLLER, Maximum Outdoor Air Flow Rate [m3/s], 0.12974
 Component Sizing Information, Controller:OutdoorAir, ZONE SMALLOFFICE WHOLEBUILDING - SM OFFICE B END_A - STORY GROUND PSZ-AC OA SYSTEM CONTROLLER, Minimum Outdoor Air Flow Rate [m3/s], 1.54925E-002
 Component Sizing Information, AirLoopHVAC:UnitarySystem, ZONE SMALLOFFICE WHOLEBUILDING - SM OFFICE B END_A - STORY GROUND PSZ-AC UNITARY AC, Design Size Supply Air Flow Rate [m3/s], 0.12974
 Component Sizing Information, AirLoopHVAC:UnitarySystem, ZONE SMALLOFFICE WHOLEBUILDING - SM OFFICE B END_A - STORY GROUND PSZ-AC UNITARY AC, Design Size Heating Supply Air Flow Rate [m3/s], 0.12974
 Component Sizing Information, AirLoopHVAC:UnitarySystem, ZONE SMALLOFFICE WHOLEBUILDING - SM OFFICE B END_A - STORY GROUND PSZ-AC UNITARY AC, Design Size Cooling Supply Air Flow Rate [m3/s], 0.12974
 Component Sizing Information, AirLoopHVAC:UnitarySystem, ZONE SMALLOFFICE WHOLEBUILDING - SM OFFICE B END_A - STORY GROUND PSZ-AC UNITARY AC, User-Specified No Load Supply Air Flow Rate [m3/s], 0.00000
 Component Sizing Information, AirLoopHVAC:UnitarySystem, ZONE SMALLOFFICE WHOLEBUILDING - SM OFFICE B END_A - STORY GROUND PSZ-AC UNITARY AC, Design Size Nominal Cooling Capacity [W], 2153.06479
 Component Sizing Information, AirLoopHVAC:UnitarySystem, ZONE SMALLOFFICE WHOLEBUILDING - SM OFFICE B END_A - STORY GROUND PSZ-AC UNITARY AC, Design Size Nominal Heating Capacity [W], 4892.23147
 Component Sizing Information, AirLoopHVAC:UnitarySystem, ZONE SMALLOFFICE WHOLEBUILDING - SM OFFICE B END_A - STORY GROUND PSZ-AC UNITARY AC, Design Size Maximum Supply Air Temperature [C], 50.00000
 Component Sizing Information, AirLoopHVAC:UnitarySystem, ZONE SMALLOFFICE WHOLEBUILDING - SM OFFICE B END_A - STORY GROUND PSZ-AC UNITARY AC, User-Specified Maximum Supply Air Temperature [C], 80.00000
 Component Sizing Information, AirLoopHVAC:UnitarySystem, ZONE SMALLOFFICE WHOLEBUILDING - SM OFFICE B END_A - STORY GROUND PSZ-AC UNITARY AC, User-Specified Supplemental Heating Coil Nominal Capacity [W], 4892.23147
 Component Sizing Information, AirLoopHVAC:UnitarySystem, ZONE SMALLOFFICE WHOLEBUILDING - SM OFFICE B END_A - STORY GROUND PSZ-AC UNITARY AC, Fraction of Supply Air Flow That Goes Through the Controlling Zone, 1.00000
 Component Sizing Information, Coil:Cooling:DX:SingleSpeed, ZONE SMALLOFFICE WHOLEBUILDING - SM OFFICE B END_A - STORY GROUND PSZ-AC 1SPD DX AC CLG COIL 7KBTU/HR 9.7SEER, Design Size Rated Air Flow Rate [m3/s], 0.12974
 Component Sizing Information, Coil:Cooling:DX:SingleSpeed, ZONE SMALLOFFICE WHOLEBUILDING - SM OFFICE B END_A - STORY GROUND PSZ-AC 1SPD DX AC CLG COIL 7KBTU/HR 9.7SEER, Design Size Gross Rated Total Cooling Capacity [W], 2153.06479
 Component Sizing Information, Coil:Cooling:DX:SingleSpeed, ZONE SMALLOFFICE WHOLEBUILDING - SM OFFICE B END_A - STORY GROUND PSZ-AC 1SPD DX AC CLG COIL 7KBTU/HR 9.7SEER, Design Size Gross Rated Sensible Heat Ratio, 0.80074
 DX Cooling Coil Standard Rating Information, Coil:Cooling:DX:SingleSpeed, ZONE SMALLOFFICE WHOLEBUILDING - SM OFFICE B END_A - STORY GROUND PSZ-AC 1SPD DX AC CLG COIL 7KBTU/HR 9.7SEER, 2052.5, 2.62, 8.93, 10.25, 9.37, 9.72
 Component Sizing Information, Coil:Heating:Fuel, ZONE SMALLOFFICE WHOLEBUILDING - SM OFFICE B END_A - STORY GROUND PSZ-AC GAS HTG COIL, Design Size Nominal Capacity [W], 4892.23147
 Component Sizing Information, Fan:OnOff, ZONE SMALLOFFICE WHOLEBUILDING - SM OFFICE B END_A - STORY GROUND PSZ-AC FAN, Design Size Maximum Flow Rate [m3/s], 0.12974
 Component Sizing Information, Coil:Heating:Electric, ZONE SMALLOFFICE WHOLEBUILDING - SM OFFICE B END_A - STORY GROUND PSZ-AC ELECTRIC BACKUP HTG COIL, Design Size Nominal Capacity [W], 4892.23147
 Component Sizing Information, Controller:OutdoorAir, ZONE SMALLOFFICE WHOLEBUILDING - SM OFFICE B END_B - STORY GROUND PSZ-AC OA SYSTEM CONTROLLER, Maximum Outdoor Air Flow Rate [m3/s], 0.10775
 Component Sizing Information, Controller:OutdoorAir, ZONE SMALLOFFICE WHOLEBUILDING - SM OFFICE B END_B - STORY GROUND PSZ-AC OA SYSTEM CONTROLLER, Minimum Outdoor Air Flow Rate [m3/s], 1.54925E-002
 Component Sizing Information, AirLoopHVAC:UnitarySystem, ZONE SMALLOFFICE WHOLEBUILDING - SM OFFICE B END_B - STORY GROUND PSZ-AC UNITARY AC, Design Size Supply Air Flow Rate [m3/s], 0.10775
 Component Sizing Information, AirLoopHVAC:UnitarySystem, ZONE SMALLOFFICE WHOLEBUILDING - SM OFFICE B END_B - STORY GROUND PSZ-AC UNITARY AC, Design Size Heating Supply Air Flow Rate [m3/s], 0.10775
 Component Sizing Information, AirLoopHVAC:UnitarySystem, ZONE SMALLOFFICE WHOLEBUILDING - SM OFFICE B END_B - STORY GROUND PSZ-AC UNITARY AC, Design Size Cooling Supply Air Flow Rate [m3/s], 0.10775
 Component Sizing Information, AirLoopHVAC:UnitarySystem, ZONE SMALLOFFICE WHOLEBUILDING - SM OFFICE B END_B - STORY GROUND PSZ-AC UNITARY AC, User-Specified No Load Supply Air Flow Rate [m3/s], 0.00000
 Component Sizing Information, AirLoopHVAC:UnitarySystem, ZONE SMALLOFFICE WHOLEBUILDING - SM OFFICE B END_B - STORY GROUND PSZ-AC UNITARY AC, Design Size Nominal Cooling Capacity [W], 1783.59720
 Component Sizing Information, AirLoopHVAC:UnitarySystem, ZONE SMALLOFFICE WHOLEBUILDING - SM OFFICE B END_B - STORY GROUND PSZ-AC UNITARY AC, Design Size Nominal Heating Capacity [W], 4120.37853
 Component Sizing Information, AirLoopHVAC:UnitarySystem, ZONE SMALLOFFICE WHOLEBUILDING - SM OFFICE B END_B - STORY GROUND PSZ-AC UNITARY AC, Design Size Maximum Supply Air Temperature [C], 50.00000
 Component Sizing Information, AirLoopHVAC:UnitarySystem, ZONE SMALLOFFICE WHOLEBUILDING - SM OFFICE B END_B - STORY GROUND PSZ-AC UNITARY AC, User-Specified Maximum Supply Air Temperature [C], 80.00000
 Component Sizing Information, AirLoopHVAC:UnitarySystem, ZONE SMALLOFFICE WHOLEBUILDING - SM OFFICE B END_B - STORY GROUND PSZ-AC UNITARY AC, User-Specified Supplemental Heating Coil Nominal Capacity [W], 4120.37853
 Component Sizing Information, AirLoopHVAC:UnitarySystem, ZONE SMALLOFFICE WHOLEBUILDING - SM OFFICE B END_B - STORY GROUND PSZ-AC UNITARY AC, Fraction of Supply Air Flow That Goes Through the Controlling Zone, 1.00000
 Component Sizing Information, Coil:Cooling:DX:SingleSpeed, ZONE SMALLOFFICE WHOLEBUILDING - SM OFFICE B END_B - STORY GROUND PSZ-AC 1SPD DX AC CLG COIL 6KBTU/HR 9.7SEER, Design Size Rated Air Flow Rate [m3/s], 0.10775
 Component Sizing Information, Coil:Cooling:DX:SingleSpeed, ZONE SMALLOFFICE WHOLEBUILDING - SM OFFICE B END_B - STORY GROUND PSZ-AC 1SPD DX AC CLG COIL 6KBTU/HR 9.7SEER, Design Size Gross Rated Total Cooling Capacity [W], 1783.59720
 Component Sizing Information, Coil:Cooling:DX:SingleSpeed, ZONE SMALLOFFICE WHOLEBUILDING - SM OFFICE B END_B - STORY GROUND PSZ-AC 1SPD DX AC CLG COIL 6KBTU/HR 9.7SEER, Design Size Gross Rated Sensible Heat Ratio, 0.80066
 DX Cooling Coil Standard Rating Information, Coil:Cooling:DX:SingleSpeed, ZONE SMALLOFFICE WHOLEBUILDING - SM OFFICE B END_B - STORY GROUND PSZ-AC 1SPD DX AC CLG COIL 6KBTU/HR 9.7SEER, 1700.1, 2.62, 8.92, 10.25, 9.37, 9.72
 Component Sizing Information, Coil:Heating:Fuel, ZONE SMALLOFFICE WHOLEBUILDING - SM OFFICE B END_B - STORY GROUND PSZ-AC GAS HTG COIL, Design Size Nominal Capacity [W], 4120.37853
 Component Sizing Information, Fan:OnOff, ZONE SMALLOFFICE WHOLEBUILDING - SM OFFICE B END_B - STORY GROUND PSZ-AC FAN, Design Size Maximum Flow Rate [m3/s], 0.10775
 Component Sizing Information, Coil:Heating:Electric, ZONE SMALLOFFICE WHOLEBUILDING - SM OFFICE B END_B - STORY GROUND PSZ-AC ELECTRIC BACKUP HTG COIL, Design Size Nominal Capacity [W], 4120.37853
 Component Sizing Information, Controller:OutdoorAir, ZONE SMALLOFFICE WHOLEBUILDING - SM OFFICE C  - STORY GROUND PSZ-AC OA SYSTEM CONTROLLER, Maximum Outdoor Air Flow Rate [m3/s], 0.18986
 Component Sizing Information, Controller:OutdoorAir, ZONE SMALLOFFICE WHOLEBUILDING - SM OFFICE C  - STORY GROUND PSZ-AC OA SYSTEM CONTROLLER, Minimum Outdoor Air Flow Rate [m3/s], 3.38576E-002
 Component Sizing Information, AirLoopHVAC:UnitarySystem, ZONE SMALLOFFICE WHOLEBUILDING - SM OFFICE C  - STORY GROUND PSZ-AC UNITARY AC, Design Size Supply Air Flow Rate [m3/s], 0.18986
[...]
 Component Sizing Information, Coil:Heating:Fuel, ZONE SMALLOFFICE WHOLEBUILDING - SM OFFICE C END_A - STORY GROUND PSZ-AC GAS HTG COIL, Design Size Nominal Capacity [W], 3694.25289
 Component Sizing Information, Fan:OnOff, ZONE SMALLOFFICE WHOLEBUILDING - SM OFFICE C END_A - STORY GROUND PSZ-AC FAN, Design Size Maximum Flow Rate [m3/s], 9.86336E-002
 Component Sizing Information, Coil:Heating:Electric, ZONE SMALLOFFICE WHOLEBUILDING - SM OFFICE C END_A - STORY GROUND PSZ-AC ELECTRIC BACKUP HTG COIL, Design Size Nominal Capacity [W], 3694.25289
 Component Sizing Information, Controller:OutdoorAir, ZONE SMALLOFFICE WHOLEBUILDING - SM OFFICE C END_B - STORY GROUND PSZ-AC OA SYSTEM CONTROLLER, Maximum Outdoor Air Flow Rate [m3/s], 7.98122E-002
 Component Sizing Information, Controller:OutdoorAir, ZONE SMALLOFFICE WHOLEBUILDING - SM OFFICE C END_B - STORY GROUND PSZ-AC OA SYSTEM CONTROLLER, Minimum Outdoor Air Flow Rate [m3/s], 1.06188E-002
 Component Sizing Information, AirLoopHVAC:UnitarySystem, ZONE SMALLOFFICE WHOLEBUILDING - SM OFFICE C END_B - STORY GROUND PSZ-AC UNITARY AC, Design Size Supply Air Flow Rate [m3/s], 7.98122E-002
 Component Sizing Information, AirLoopHVAC:UnitarySystem, ZONE SMALLOFFICE WHOLEBUILDING - SM OFFICE C END_B - STORY GROUND PSZ-AC UNITARY AC, Design Size Heating Supply Air Flow Rate [m3/s], 7.98122E-002
 Component Sizing Information, AirLoopHVAC:UnitarySystem, ZONE SMALLOFFICE WHOLEBUILDING - SM OFFICE C END_B - STORY GROUND PSZ-AC UNITARY AC, Design Size Cooling Supply Air Flow Rate [m3/s], 7.98122E-002
 Component Sizing Information, AirLoopHVAC:UnitarySystem, ZONE SMALLOFFICE WHOLEBUILDING - SM OFFICE C END_B - STORY GROUND PSZ-AC UNITARY AC, User-Specified No Load Supply Air Flow Rate [m3/s], 0.00000
 Component Sizing Information, AirLoopHVAC:UnitarySystem, ZONE SMALLOFFICE WHOLEBUILDING - SM OFFICE C END_B - STORY GROUND PSZ-AC UNITARY AC, Design Size Nominal Cooling Capacity [W], 1323.89882
 Component Sizing Information, AirLoopHVAC:UnitarySystem, ZONE SMALLOFFICE WHOLEBUILDING - SM OFFICE C END_B - STORY GROUND PSZ-AC UNITARY AC, Design Size Nominal Heating Capacity [W], 3033.65876
 Component Sizing Information, AirLoopHVAC:UnitarySystem, ZONE SMALLOFFICE WHOLEBUILDING - SM OFFICE C END_B - STORY GROUND PSZ-AC UNITARY AC, Design Size Maximum Supply Air Temperature [C], 50.00000
 Component Sizing Information, AirLoopHVAC:UnitarySystem, ZONE SMALLOFFICE WHOLEBUILDING - SM OFFICE C END_B - STORY GROUND PSZ-AC UNITARY AC, User-Specified Maximum Supply Air Temperature [C], 80.00000
 Component Sizing Information, AirLoopHVAC:UnitarySystem, ZONE SMALLOFFICE WHOLEBUILDING - SM OFFICE C END_B - STORY GROUND PSZ-AC UNITARY AC, User-Specified Supplemental Heating Coil Nominal Capacity [W], 3033.65876
 Component Sizing Information, AirLoopHVAC:UnitarySystem, ZONE SMALLOFFICE WHOLEBUILDING - SM OFFICE C END_B - STORY GROUND PSZ-AC UNITARY AC, Fraction of Supply Air Flow That Goes Through the Controlling Zone, 1.00000
 Component Sizing Information, Coil:Cooling:DX:SingleSpeed, ZONE SMALLOFFICE WHOLEBUILDING - SM OFFICE C END_B - STORY GROUND PSZ-AC 1SPD DX AC CLG COIL 5KBTU/HR 9.7SEER, Design Size Rated Air Flow Rate [m3/s], 7.98122E-002
 Component Sizing Information, Coil:Cooling:DX:SingleSpeed, ZONE SMALLOFFICE WHOLEBUILDING - SM OFFICE C END_B - STORY GROUND PSZ-AC 1SPD DX AC CLG COIL 5KBTU/HR 9.7SEER, Design Size Gross Rated Total Cooling Capacity [W], 1323.89882
 Component Sizing Information, Coil:Cooling:DX:SingleSpeed, ZONE SMALLOFFICE WHOLEBUILDING - SM OFFICE C END_B - STORY GROUND PSZ-AC 1SPD DX AC CLG COIL 5KBTU/HR 9.7SEER, Design Size Gross Rated Sensible Heat Ratio, 0.80090
 DX Cooling Coil Standard Rating Information, Coil:Cooling:DX:SingleSpeed, ZONE SMALLOFFICE WHOLEBUILDING - SM OFFICE C END_B - STORY GROUND PSZ-AC 1SPD DX AC CLG COIL 5KBTU/HR 9.7SEER, 1262.0, 2.62, 8.93, 10.25, 9.37, 9.72
 Component Sizing Information, Coil:Heating:Fuel, ZONE SMALLOFFICE WHOLEBUILDING - SM OFFICE C END_B - STORY GROUND PSZ-AC GAS HTG COIL, Design Size Nominal Capacity [W], 3033.65876
 Component Sizing Information, Fan:OnOff, ZONE SMALLOFFICE WHOLEBUILDING - SM OFFICE C END_B - STORY GROUND PSZ-AC FAN, Design Size Maximum Flow Rate [m3/s], 7.98122E-002
 Component Sizing Information, Coil:Heating:Electric, ZONE SMALLOFFICE WHOLEBUILDING - SM OFFICE C END_B - STORY GROUND PSZ-AC ELECTRIC BACKUP HTG COIL, Design Size Nominal Capacity [W], 3033.65876
Water Heater Information,WaterHeater:Mixed,40GAL NATURALGAS WATER HEATER - 2KBTU/HR 0.78 THERM EFF,0.1514,677.5,0.167,0.8252
 Component Sizing Information, PlantLoop, HOT WATER LOOP, Initial Maximum Loop Flow Rate [m3/s], 0.00000
 Component Sizing Information, PlantLoop, HOT WATER LOOP, Initial Plant Loop Volume [m3], 0.00000
 Component Sizing Information, Pump:VariableSpeed, HOT WATER LOOP PUMP, Initial Design Flow Rate [m3/s], -99999.00000
 Component Sizing Information, Pump:VariableSpeed, HOT WATER LOOP PUMP, Initial Design Power Consumption [W], 0.00000
 Component Sizing Information, Boiler:HotWater, BOILER, Initial Design Size Nominal Capacity [W], 0.00000
 Component Sizing Information, Boiler:HotWater, BOILER, Initial Design Size Design Water Flow Rate [m3/s], 0.00000
 Component Sizing Information, PlantLoop, OFFICE SHARED SERVICE WATER LOOP, Initial Maximum Loop Flow Rate [m3/s], 2.31514E-006
 Component Sizing Information, PlantLoop, OFFICE SHARED SERVICE WATER LOOP, Initial Plant Loop Volume [m3], 2.77817E-004
 Component Sizing Information, Pump:ConstantSpeed, OFFICE SHARED SERVICE WATER LOOP CIRCULATOR PUMP, Initial Design Flow Rate [m3/s], 2.31514E-006
 Component Sizing Information, Pump:ConstantSpeed, OFFICE SHARED SERVICE WATER LOOP CIRCULATOR PUMP, Initial Design Power Consumption [W], 0.10754
 Component Sizing Information, WaterHeater:Mixed, 40GAL NATURALGAS WATER HEATER - 2KBTU/HR 0.78 THERM EFF, Initial Use Side Design Flow Rate [m3/s], 2.31514E-006
! <Environment>,Environment Name,Environment Type, Start Date, End Date, Start DayOfWeek, Duration {#days}, Source:Start DayOfWeek,  Use Daylight Saving, Use Holidays, Apply Weekend Holiday Rule,  Use Rain Values, Use Snow Values, Sky Temperature Model
! <Environment:Special Days>, Special Day Name, Special Day Type, Source, Start Date, Duration {#days}
! <Environment:Daylight Saving>, Daylight Saving Indicator, Source, Start Date, End Date
! <Environment:WarmupDays>, NumberofWarmupDays
Environment,RUN PERIOD 1,WeatherFileRunPeriod,01/01/2019,12/31/2019,Tuesday,365,Use RunPeriod Specified Day,No,No,No,Yes,Yes,Clark and Allen
Environment:Daylight Saving,No,RunPeriod Object
! <Environment:Design Day Data>, Max Dry-Bulb Temp {C}, Temp Range {dC}, Temp Range Ind Type, Hum Ind Type, Hum Ind Value at Max Temp, Hum Ind Units, Pressure {Pa}, Wind Direction {deg CW from N}, Wind Speed {m/s}, Clearness, Rain, Snow
! <Environment:Design Day Misc>,DayOfYear,ASHRAE A Coeff,ASHRAE B Coeff,ASHRAE C Coeff,Solar Constant-Annual Variation,Eq of Time {minutes}, Solar Declination Angle {deg}, Solar Model
Environment:Design Day Data,27.70,7.40,DefaultMultipliers,Wetbulb,18.30,{C},101301,290,4.9,0.00,No,No
Environment:Design Day Misc,233,1106.3,0.2000,0.1216,1.0,-3.33,12.4,ASHRAETau
Environment:WarmupDays,  3
! <Tabular Report>,Style,Unit Conversion
Tabular Report,HTML,None
! <Warmup Convergence Information>,Zone Name,Environment Type/Name,Average Warmup Temperature Difference {deltaC},Std Dev Warmup Temperature Difference {deltaC},Max Temperature Pass/Fail Convergence,Min Temperature Pass/Fail Convergence,Average Warmup Load Difference {W},Std Dev Warmup Load Difference {W},Heating Load Pass/Fail Convergence,Cooling Load Pass/Fail Convergence
 Warmup Convergence Information,ZONE SMALLOFFICE WHOLEBUILDING - SM OFFICE A  - STORY GROUND,SizingPeriod: CLIMATE ZONE 3 ANN CLG .4% CONDNS DB=>MWB HVAC Sizing Pass 1,5.2736319526E-002,0.2280376833,Pass,Pass,0.1683938403,0.8495889874,Pass,Pass
 Warmup Convergence Information,ZONE SMALLOFFICE WHOLEBUILDING - SM OFFICE A END_A - STORY GROUND,SizingPeriod: CLIMATE ZONE 3 ANN CLG .4% CONDNS DB=>MWB HVAC Sizing Pass 1,4.4726568275E-002,0.1911418134,Pass,Pass,0.1033653365,0.3891792068,Pass,Pass
 Warmup Convergence Information,ZONE SMALLOFFICE WHOLEBUILDING - SM OFFICE A END_B - STORY GROUND,SizingPeriod: CLIMATE ZONE 3 ANN CLG .4% CONDNS DB=>MWB HVAC Sizing Pass 1,4.6444501271E-002,0.1900381035,Pass,Pass,0.1030533110,0.4507700703,Pass,Pass
 Warmup Convergence Information,ZONE SMALLOFFICE WHOLEBUILDING - SM OFFICE B  - STORY GROUND,SizingPeriod: CLIMATE ZONE 3 ANN CLG .4% CONDNS DB=>MWB HVAC Sizing Pass 1,5.6277726432E-002,0.2564729598,Pass,Pass,8.2701571345,79.7909294619,Pass,Pass
 Warmup Convergence Information,ZONE SMALLOFFICE WHOLEBUILDING - SM OFFICE B END_A - STORY GROUND,SizingPeriod: CLIMATE ZONE 3 ANN CLG .4% CONDNS DB=>MWB HVAC Sizing Pass 1,5.5661374972E-002,0.2491912904,Pass,Pass,0.1449946763,0.6975428095,Pass,Pass
 Warmup Convergence Information,ZONE SMALLOFFICE WHOLEBUILDING - SM OFFICE B END_B - STORY GROUND,SizingPeriod: CLIMATE ZONE 3 ANN CLG .4% CONDNS DB=>MWB HVAC Sizing Pass 1,5.7320034568E-002,0.2408912087,Pass,Pass,0.1651406060,0.9267533746,Pass,Pass
 Warmup Convergence Information,ZONE SMALLOFFICE WHOLEBUILDING - SM OFFICE C  - STORY GROUND,SizingPeriod: CLIMATE ZONE 3 ANN CLG .4% CONDNS DB=>MWB HVAC Sizing Pass 1,4.6301963590E-002,0.1928578540,Pass,Pass,0.3472677253,1.3955598454,Pass,Pass
 Warmup Convergence Information,ZONE SMALLOFFICE WHOLEBUILDING - SM OFFICE C END_A - STORY GROUND,SizingPeriod: CLIMATE ZONE 3 ANN CLG .4% CONDNS DB=>MWB HVAC Sizing Pass 1,4.0600002156E-002,0.1681502792,Pass,Pass,0.1036608424,0.3973944777,Pass,Pass
 Warmup Convergence Information,ZONE SMALLOFFICE WHOLEBUILDING - SM OFFICE C END_B - STORY GROUND,SizingPeriod: CLIMATE ZONE 3 ANN CLG .4% CONDNS DB=>MWB HVAC Sizing Pass 1,4.1928612056E-002,0.1646198268,Pass,Pass,0.1309546228,0.5828852549,Pass,Pass
Environment:Design Day Data,25.50,7.40,DefaultMultipliers,Wetbulb,19.80,{C},101301,290,4.9,0.00,No,No
Environment:Design Day Misc,233,1106.3,0.2000,0.1216,1.0,-3.33,12.4,ASHRAETau
Environment:WarmupDays,  3
 Warmup Convergence Information,ZONE SMALLOFFICE WHOLEBUILDING - SM OFFICE A  - STORY GROUND,SizingPeriod: CLIMATE ZONE 3 ANN CLG .4% CONDNS WB=>MDB HVAC Sizing Pass 1,3.2209384672E-002,0.1287944073,Pass,Pass,0.3001146206,1.3003509711,Pass,Pass
 Warmup Convergence Information,ZONE SMALLOFFICE WHOLEBUILDING - SM OFFICE A END_A - STORY GROUND,SizingPeriod: CLIMATE ZONE 3 ANN CLG .4% CONDNS WB=>MDB HVAC Sizing Pass 1,2.2291460230E-002,7.2883738944E-002,Pass,Pass,8.6788529674E-002,0.2346996871,Pass,Pass
 Warmup Convergence Information,ZONE SMALLOFFICE WHOLEBUILDING - SM OFFICE A END_B - STORY GROUND,SizingPeriod: CLIMATE ZONE 3 ANN CLG .4% CONDNS WB=>MDB HVAC Sizing Pass 1,2.4170642129E-002,7.0098064921E-002,Pass,Pass,0.1007590122,0.3218823302,Pass,Pass
 Warmup Convergence Information,ZONE SMALLOFFICE WHOLEBUILDING - SM OFFICE B  - STORY GROUND,SizingPeriod: CLIMATE ZONE 3 ANN CLG .4% CONDNS WB=>MDB HVAC Sizing Pass 1,5.4494435803E-002,0.2288059367,Pass,Pass,0.1627804623,0.9433079409,Pass,Pass
 Warmup Convergence Information,ZONE SMALLOFFICE WHOLEBUILDING - SM OFFICE B END_A - STORY GROUND,SizingPeriod: CLIMATE ZONE 3 ANN CLG .4% CONDNS WB=>MDB HVAC Sizing Pass 1,3.5465577384E-002,0.1471545901,Pass,Pass,0.1800958602,0.8538412787,Pass,Pass
 Warmup Convergence Information,ZONE SMALLOFFICE WHOLEBUILDING - SM OFFICE B END_B - STORY GROUND,SizingPeriod: CLIMATE ZONE 3 ANN CLG .4% CONDNS WB=>MDB HVAC Sizing Pass 1,3.7267636148E-002,0.1444210559,Pass,Pass,0.3676769892,1.5831000935,Pass,Pass
 Warmup Convergence Information,ZONE SMALLOFFICE WHOLEBUILDING - SM OFFICE C  - STORY GROUND,SizingPeriod: CLIMATE ZONE 3 ANN CLG .4% CONDNS WB=>MDB HVAC Sizing Pass 1,2.5897241843E-002,9.5456982331E-002,Pass,Pass,0.8984158432,7.9493099358,Pass,Pass
 Warmup Convergence Information,ZONE SMALLOFFICE WHOLEBUILDING - SM OFFICE C END_A - STORY GROUND,SizingPeriod: CLIMATE ZONE 3 ANN CLG .4% CONDNS WB=>MDB HVAC Sizing Pass 1,1.8374942796E-002,5.5431581192E-002,Pass,Pass,8.9117005002E-002,0.2316101057,Pass,Pass
 Warmup Convergence Information,ZONE SMALLOFFICE WHOLEBUILDING - SM OFFICE C END_B - STORY GROUND,SizingPeriod: CLIMATE ZONE 3 ANN CLG .4% CONDNS WB=>MDB HVAC Sizing Pass 1,2.0326823549E-002,5.2801287406E-002,Pass,Pass,0.1105104684,0.3924967157,Pass,Pass
Environment:Design Day Data,2.90,0.00,DefaultMultipliers,Wetbulb,2.90,{C},101301,50,2.2,0.00,No,No
Environment:Design Day Misc, 21,1229.0,0.1415,5.7310E-002,1.0,-11.15,-20.1,ASHRAEClearSky
Environment:WarmupDays,  3
 Warmup Convergence Information,ZONE SMALLOFFICE WHOLEBUILDING - SM OFFICE A  - STORY GROUND,SizingPeriod: CLIMATE ZONE 3 ANN HTG 99.6% CONDNS DB HVAC Sizing Pass 1,2.7385501274E-015,2.5371018621E-015,Pass,Pass,3.5936694630E-006,1.1239639063E-006,Pass,Pass
 Warmup Convergence Information,ZONE SMALLOFFICE WHOLEBUILDING - SM OFFICE A END_A - STORY GROUND,SizingPeriod: CLIMATE ZONE 3 ANN HTG 99.6% CONDNS DB HVAC Sizing Pass 1,1.9243865760E-015,2.2302928650E-015,Pass,Pass,4.3896095697E-006,1.3730247301E-006,Pass,Pass
 Warmup Convergence Information,ZONE SMALLOFFICE WHOLEBUILDING - SM OFFICE A END_B - STORY GROUND,SizingPeriod: CLIMATE ZONE 3 ANN HTG 99.6% CONDNS DB HVAC Sizing Pass 1,2.3314683517E-015,2.3957848016E-015,Pass,Pass,4.7018829122E-006,1.4474818778E-006,Pass,Pass
 Warmup Convergence Information,ZONE SMALLOFFICE WHOLEBUILDING - SM OFFICE B  - STORY GROUND,SizingPeriod: CLIMATE ZONE 3 ANN HTG 99.6% CONDNS DB HVAC Sizing Pass 1,2.1094237468E-015,2.0239378934E-015,Pass,Pass,1.6655723929E-006,5.1318148215E-007,Pass,Pass
 Warmup Convergence Information,ZONE SMALLOFFICE WHOLEBUILDING - SM OFFICE B END_A - STORY GROUND,SizingPeriod: CLIMATE ZONE 3 ANN HTG 99.6% CONDNS DB HVAC Sizing Pass 1,2.5165055225E-015,2.2302928650E-015,Pass,Pass,3.7729210001E-006,1.1790047343E-006,Pass,Pass
 Warmup Convergence Information,ZONE SMALLOFFICE WHOLEBUILDING - SM OFFICE B END_B - STORY GROUND,SizingPeriod: CLIMATE ZONE 3 ANN HTG 99.6% CONDNS DB HVAC Sizing Pass 1,2.4424906542E-015,2.3673190211E-015,Pass,Pass,4.2567375776E-006,1.2944927722E-006,Pass,Pass
 Warmup Convergence Information,ZONE SMALLOFFICE WHOLEBUILDING - SM OFFICE C  - STORY GROUND,SizingPeriod: CLIMATE ZONE 3 ANN HTG 99.6% CONDNS DB HVAC Sizing Pass 1,1.6653345369E-015,1.9154699004E-015,Pass,Pass,4.0773946154E-006,1.2394540615E-006,Pass,Pass
 Warmup Convergence Information,ZONE SMALLOFFICE WHOLEBUILDING - SM OFFICE C END_A - STORY GROUND,SizingPeriod: CLIMATE ZONE 3 ANN HTG 99.6% CONDNS DB HVAC Sizing Pass 1,2.7015426933E-015,2.7492812621E-015,Pass,Pass,4.7029898703E-006,1.4477455592E-006,Pass,Pass
 Warmup Convergence Information,ZONE SMALLOFFICE WHOLEBUILDING - SM OFFICE C END_B - STORY GROUND,SizingPeriod: CLIMATE ZONE 3 ANN HTG 99.6% CONDNS DB HVAC Sizing Pass 1,2.0354088785E-015,2.0983574141E-015,Pass,Pass,5.0157082765E-006,1.5223097421E-006,Pass,Pass
Environment:Design Day Data,27.70,7.40,DefaultMultipliers,Wetbulb,18.30,{C},101301,290,4.9,0.00,No,No
Environment:Design Day Misc,233,1106.3,0.2000,0.1216,1.0,-3.33,12.4,ASHRAETau
 Component Sizing Information, PlantLoop, HOT WATER LOOP, Maximum Loop Flow Rate [m3/s], 0.00000
 Component Sizing Information, PlantLoop, HOT WATER LOOP, Plant Loop Volume [m3], 0.00000
 Component Sizing Information, PlantLoop, OFFICE SHARED SERVICE WATER LOOP, Maximum Loop Flow Rate [m3/s], 2.31514E-006
 Component Sizing Information, PlantLoop, OFFICE SHARED SERVICE WATER LOOP, Plant Loop Volume [m3], 2.77817E-004
 Component Sizing Information, Boiler:HotWater, BOILER, Design Size Nominal Capacity [W], 0.00000
 Component Sizing Information, Boiler:HotWater, BOILER, Design Size Design Water Flow Rate [m3/s], 0.00000
 Component Sizing Information, Pump:VariableSpeed, HOT WATER LOOP PUMP, Design Flow Rate [m3/s], 0.00000
 Component Sizing Information, Pump:VariableSpeed, HOT WATER LOOP PUMP, Design Power Consumption [W], 0.00000
 Component Sizing Information, WaterHeater:Mixed, 40GAL NATURALGAS WATER HEATER - 2KBTU/HR 0.78 THERM EFF, Use Side Design Flow Rate [m3/s], 2.31514E-006
 Component Sizing Information, Pump:ConstantSpeed, OFFICE SHARED SERVICE WATER LOOP CIRCULATOR PUMP, Design Flow Rate [m3/s], 2.31514E-006
 Component Sizing Information, Pump:ConstantSpeed, OFFICE SHARED SERVICE WATER LOOP CIRCULATOR PUMP, Design Power Consumption [W], 0.10754
Environment:Design Day Data,25.50,7.40,DefaultMultipliers,Wetbulb,19.80,{C},101301,290,4.9,0.00,No,No
Environment:Design Day Misc,233,1106.3,0.2000,0.1216,1.0,-3.33,12.4,ASHRAETau
Environment:Design Day Data,2.90,0.00,DefaultMultipliers,Wetbulb,2.90,{C},101301,50,2.2,0.00,No,No
Environment:Design Day Misc, 21,1229.0,0.1415,5.7310E-002,1.0,-11.15,-20.1,ASHRAEClearSky
Environment,RUN PERIOD 1,WeatherFileRunPeriod,01/01/2019,12/31/2019,Tuesday,365,Use RunPeriod Specified Day,No,No,No,Yes,Yes,Clark and Allen
Environment:Design Day Data,27.70,7.40,DefaultMultipliers,Wetbulb,18.30,{C},101301,290,4.9,0.00,No,No
Environment:Design Day Misc,233,1106.3,0.2000,0.1216,1.0,-3.33,12.4,ASHRAETau
Environment:Design Day Data,25.50,7.40,DefaultMultipliers,Wetbulb,19.80,{C},101301,290,4.9,0.00,No,No
Environment:Design Day Misc,233,1106.3,0.2000,0.1216,1.0,-3.33,12.4,ASHRAETau
Environment:Design Day Data,2.90,0.00,DefaultMultipliers,Wetbulb,2.90,{C},101301,50,2.2,0.00,No,No
Environment:Design Day Misc, 21,1229.0,0.1415,5.7310E-002,1.0,-11.15,-20.1,ASHRAEClearSky
Environment,RUN PERIOD 1,WeatherFileRunPeriod,01/01/2019,12/31/2019,Tuesday,365,Use RunPeriod Specified Day,No,No,No,Yes,Yes,Clark and Allen
Environment:Daylight Saving,No,RunPeriod Object
Environment:WarmupDays,  3
 Warmup Convergence Information,ZONE SMALLOFFICE WHOLEBUILDING - SM OFFICE A  - STORY GROUND,RunPeriod: RUN PERIOD 1,0.1593449164,0.3899436770,Pass,Pass,0.2605872064,1.5131916815,Pass,Pass
 Warmup Convergence Information,ZONE SMALLOFFICE WHOLEBUILDING - SM OFFICE A END_A - STORY GROUND,RunPeriod: RUN PERIOD 1,0.1536725109,0.5827973698,Pass,Pass,0.2666544881,0.5780796798,Pass,Pass
 Warmup Convergence Information,ZONE SMALLOFFICE WHOLEBUILDING - SM OFFICE A END_B - STORY GROUND,RunPeriod: RUN PERIOD 1,0.1457203715,0.5883518970,Pass,Pass,0.2607689981,0.6158594223,Pass,Pass
 Warmup Convergence Information,ZONE SMALLOFFICE WHOLEBUILDING - SM OFFICE B  - STORY GROUND,RunPeriod: RUN PERIOD 1,8.8344972406E-002,0.1120388745,Pass,Pass,0.1742288848,0.7257464685,Pass,Pass
 Warmup Convergence Information,ZONE SMALLOFFICE WHOLEBUILDING - SM OFFICE B END_A - STORY GROUND,RunPeriod: RUN PERIOD 1,0.1057096903,0.4085985883,Pass,Pass,0.1986156023,0.6198535135,Pass,Pass
 Warmup Convergence Information,ZONE SMALLOFFICE WHOLEBUILDING - SM OFFICE B END_B - STORY GROUND,RunPeriod: RUN PERIOD 1,0.1003678460,0.4130763027,Pass,Pass,0.1423918012,0.4117909747,Pass,Pass
 Warmup Convergence Information,ZONE SMALLOFFICE WHOLEBUILDING - SM OFFICE C  - STORY GROUND,RunPeriod: RUN PERIOD 1,0.1088574983,0.4363630242,Pass,Pass,0.5373702994,4.3786864773,Pass,Pass
 Warmup Convergence Information,ZONE SMALLOFFICE WHOLEBUILDING - SM OFFICE C END_A - STORY GROUND,RunPeriod: RUN PERIOD 1,0.1147462581,0.6106075449,Pass,Pass,0.2597674069,0.5501464755,Pass,Pass
 Warmup Convergence Information,ZONE SMALLOFFICE WHOLEBUILDING - SM OFFICE C END_B - STORY GROUND,RunPeriod: RUN PERIOD 1,0.1190372968,0.6137818020,Pass,Pass,0.3127082003,0.9632307661,Pass,Pass
! <Program Control Information:Threads/Parallel Sims>, Threading Supported,Maximum Number of Threads, Env Set Threads (OMP_NUM_THREADS), EP Env Set Threads (EP_OMP_NUM_THREADS), IDF Set Threads, Number of Threads Used (Interior Radiant Exchange), Number Nominal Surfaces, Number Parallel Sims
Program Control:Threads/Parallel Sims, No,1, N/A, N/A, N/A, N/A, N/A, N/A
End of Data
